@<TRIPOS>MOLECULE
CHEMBL565644
   56    60     0     0     0
SMALL
USER_CHARGES

@<TRIPOS>ATOM
      1 C1         -0.0178    1.4648    0.0101 C.3       1 <0>        -0.0535
      2 N1          0.0021   -0.0041    0.0020 N.4       1 <0>        -0.3869
      3 C2          0.6897   -0.4778   -1.2066 C.3       1 <0>        -0.0476
      4 C3          0.7126   -0.4907    1.1921 C.3       1 <0>        -0.0074
      5 C4         -0.0711   -0.1034    2.4478 C.3       1 <0>        -0.1723
      6 C5          0.6689   -0.6103    3.6874 C.3       1 <0>         0.1223
      7 N2         -0.0815   -0.2395    4.8897 N.pl3     1 <0>        -0.5033
      8 C6          0.1203    0.8655    5.6569 C.2       1 <0>         0.2525
      9 N3         -0.7236    0.8833    6.6470 N.2       1 <0>        -0.4827
     10 C7         -1.5258   -0.2107    6.5826 C.ar      1 <0>         0.0521
     11 C8         -1.1288   -0.9442    5.4508 C.ar      1 <0>         0.0450
     12 C9         -1.7803   -2.1257    5.1223 C.ar      1 <0>        -0.1188
     13 C10        -2.8115   -2.5780    5.8964 C.ar      1 <0>        -0.0711
     14 C11        -3.2206   -1.8591    7.0233 C.ar      1 <0>         0.0182
     15 C12        -2.5771   -0.6799    7.3719 C.ar      1 <0>        -0.0351
     16 C13        -4.3424   -2.3625    7.8542 C.2       1 <0>        -0.1617
     17 C14        -5.6421   -2.4954    7.4604 C.2       1 <0>         0.0764
     18 N4         -6.3443   -2.9875    8.4997 N.pl3     1 <0>        -0.3791
     19 N5         -5.4623   -3.1643    9.5795 N.2       1 <0>        -0.2493
     20 C15        -4.2588   -2.7988    9.1994 C.2       1 <0>         0.1363
     21 C16        -3.0326   -2.8328   10.0315 C.ar      1 <0>         0.1960
     22 C17        -3.1379   -2.7779   11.4204 C.ar      1 <0>        -0.1397
     23 C18        -1.9843   -2.8110   12.1838 C.ar      1 <0>        -0.0740
     24 C19        -0.7612   -2.8980   11.5331 C.ar      1 <0>        -0.1635
     25 C20        -0.7300   -2.9487   10.1521 C.ar      1 <0>         0.1031
     26 N6         -1.8438   -2.9207    9.4485 N.ar      1 <0>        -0.4554
     27 C21        -7.7612   -3.1646    8.1410 C.3       1 <0>         0.1273
     28 C22        -7.9764   -2.3152    6.8702 C.3       1 <0>        -0.1328
     29 C23        -6.5529   -2.2807    6.2696 C.3       1 <0>        -0.0650
     30 H1          1.0047    1.8421    0.0024 H         1 <0>         0.1240
     31 H2         -0.5450    1.8259   -0.8730 H         1 <0>         0.1260
     32 H3         -0.5280    1.8163    0.9069 H         1 <0>         0.1237
     33 H4          1.7123   -0.1005   -1.2143 H         1 <0>         0.1231
     34 H5          0.7044   -1.5677   -1.2126 H         1 <0>         0.1244
     35 H6          0.1625   -0.1167   -2.0897 H         1 <0>         0.1258
     36 H7          0.8051   -1.5756    1.1418 H         1 <0>         0.1348
     37 H8          1.7055   -0.0428    1.2310 H         1 <0>         0.1344
     38 H9         -0.1636    0.9815    2.4982 H         1 <0>         0.0958
     39 H10        -1.0640   -0.5514    2.4090 H         1 <0>         0.0949
     40 H11         0.7614   -1.6952    3.6370 H         1 <0>         0.0978
     41 H12         1.6619   -0.1623    3.7262 H         1 <0>         0.1041
     42 H13         0.8721    1.6184    5.4714 H         1 <0>         0.2113
     43 H14        -1.4717   -2.6879    4.2534 H         1 <0>         0.1151
     44 H15        -3.3144   -3.4975    5.6355 H         1 <0>         0.1268
     45 H16        -2.8945   -0.1238    8.2416 H         1 <0>         0.1226
     46 H17        -4.1061   -2.7101   11.8940 H         1 <0>         0.1397
     47 H18        -2.0344   -2.7697   13.2619 H         1 <0>         0.1403
     48 H19         0.1573   -2.9254   12.1005 H         1 <0>         0.1383
     49 H20         0.2201   -3.0165    9.6430 H         1 <0>         0.1564
     50 H21        -7.9688   -4.2141    7.9324 H         1 <0>         0.0947
     51 H22        -8.4016   -2.8060    8.9468 H         1 <0>         0.0978
     52 H23        -8.6754   -2.8015    6.1897 H         1 <0>         0.1063
     53 H24        -8.3166   -1.3114    7.1248 H         1 <0>         0.0906
     54 H25        -6.3564   -1.3127    5.8087 H         1 <0>         0.0962
     55 H26        -6.4263   -3.0831    5.5429 H         1 <0>         0.0974
     56 H27        -0.9445   -0.3533    0.0092 H         1 <0>         0.4280
@<TRIPOS>BOND
     1    1    2 1
     2    1   30 1
     3    1   31 1
     4    1   32 1
     5    2    3 1
     6    2    4 1
     7    2   56 1
     8    3   33 1
     9    3   34 1
    10    3   35 1
    11    4    5 1
    12    4   36 1
    13    4   37 1
    14    5    6 1
    15    5   38 1
    16    5   39 1
    17    6    7 1
    18    6   40 1
    19    6   41 1
    20    7   11 1
    21    7    8 1
    22    8    9 2
    23    8   42 1
    24    9   10 1
    25   10   15 ar
    26   10   11 ar
    27   11   12 ar
    28   12   13 ar
    29   12   43 1
    30   13   14 ar
    31   13   44 1
    32   14   15 ar
    33   14   16 1
    34   15   45 1
    35   16   20 1
    36   16   17 2
    37   17   29 1
    38   17   18 1
    39   18   19 1
    40   18   27 1
    41   19   20 2
    42   20   21 1
    43   21   26 ar
    44   21   22 ar
    45   22   23 ar
    46   22   46 1
    47   23   24 ar
    48   23   47 1
    49   24   25 ar
    50   24   48 1
    51   25   26 ar
    52   25   49 1
    53   27   28 1
    54   27   50 1
    55   27   51 1
    56   28   29 1
    57   28   52 1
    58   28   53 1
    59   29   54 1
    60   29   55 1
@<TRIPOS>MOLECULE
CHEMBL206233
   63    68     0     0     0
SMALL
USER_CHARGES

@<TRIPOS>ATOM
      1 C1         -0.0184    1.5028    0.0103 C.3       1 <0>        -0.0964
      2 C2          0.0021   -0.0041    0.0020 C.ar      1 <0>         0.1270
      3 C3          0.0056   -0.6794   -1.2046 C.ar      1 <0>        -0.1637
      4 C4          0.0249   -2.0670   -1.2080 C.ar      1 <0>        -0.0687
      5 C5          0.0401   -2.7306    0.0065 C.ar      1 <0>        -0.1443
      6 C6          0.0355   -1.9865    1.1848 C.ar      1 <0>         0.2038
      7 N1          0.0218   -0.6599    1.1445 N.ar      1 <0>        -0.4582
      8 C7          0.0510   -2.6820    2.4936 C.2       1 <0>         0.1331
      9 C8          0.5283   -2.1487    3.7165 C.2       1 <0>        -0.1612
     10 C9          0.3644   -3.1081    4.6734 C.2       1 <0>         0.0789
     11 N2         -0.1903   -4.1883    4.0899 N.pl3     1 <0>        -0.3786
     12 N3         -0.3805   -3.9008    2.7274 N.2       1 <0>        -0.2502
     13 C10        -0.4036   -5.2652    5.0709 C.3       1 <0>         0.1274
     14 C11         0.4843   -4.9054    6.2812 C.3       1 <0>        -0.1330
     15 C12         0.5908   -3.3694    6.1479 C.3       1 <0>        -0.0666
     16 C13         1.1018   -0.7957    3.9194 C.ar      1 <0>         0.0268
     17 C14         2.4443   -0.6551    4.2854 C.ar      1 <0>        -0.1103
     18 C15         2.9849    0.5823    4.4753 C.ar      1 <0>        -0.0663
     19 C16         2.1963    1.7248    4.3049 C.ar      1 <0>         0.0456
     20 C17         0.8462    1.5898    3.9370 C.ar      1 <0>         0.0490
     21 C18         0.3051    0.3288    3.7397 C.ar      1 <0>        -0.0600
     22 N4          0.3448    2.8738    3.8497 N.pl3     1 <0>        -0.5004
     23 C19         1.3608    3.7262    4.1543 C.2       1 <0>         0.2521
     24 N5          2.4432    3.0550    4.4204 N.2       1 <0>        -0.4838
     25 C20        -1.0263    3.2485    3.4946 C.3       1 <0>         0.1210
     26 C21        -1.9067    3.2060    4.7451 C.3       1 <0>        -0.1698
     27 C22        -3.3386    3.5973    4.3743 C.3       1 <0>        -0.0020
     28 N6         -4.1840    3.5565    5.5750 N.4       1 <0>        -0.3946
     29 C23        -3.7989    4.6448    6.5097 C.3       1 <0>        -0.0078
     30 C24        -5.0660    4.8273    7.3825 C.3       1 <0>        -0.1458
     31 C25        -6.2159    4.6216    6.3699 C.3       1 <0>        -0.1453
     32 C26        -5.5948    3.8150    5.2144 C.3       1 <0>        -0.0085
     33 H1          1.0042    1.8801    0.0026 H         1 <0>         0.0782
     34 H2         -0.5455    1.8639   -0.8728 H         1 <0>         0.0762
     35 H3         -0.5286    1.8543    0.9071 H         1 <0>         0.0648
     36 H4         -0.0069   -0.1322   -2.1356 H         1 <0>         0.1376
     37 H5          0.0277   -2.6167   -2.1376 H         1 <0>         0.1414
     38 H6          0.0549   -3.8100    0.0406 H         1 <0>         0.1402
     39 H7         -1.4513   -5.3009    5.3695 H         1 <0>         0.0933
     40 H8         -0.0979   -6.2235    4.6509 H         1 <0>         0.0985
     41 H9         -0.0006   -5.1831    7.2170 H         1 <0>         0.1067
     42 H10         1.4654   -5.3731    6.1981 H         1 <0>         0.0924
     43 H11         1.5815   -3.0282    6.4481 H         1 <0>         0.1000
     44 H12        -0.1792   -2.8804    6.7446 H         1 <0>         0.0957
     45 H13         3.0578   -1.5338    4.4191 H         1 <0>         0.1263
     46 H14         4.0227    0.6801    4.7578 H         1 <0>         0.1299
     47 H15        -0.7304    0.2208    3.4524 H         1 <0>         0.1162
     48 H16         1.2806    4.8030    4.1722 H         1 <0>         0.2105
     49 H17        -1.0317    4.2567    3.0805 H         1 <0>         0.1038
     50 H18        -1.4137    2.5493    2.7536 H         1 <0>         0.0983
     51 H19        -1.9013    2.1977    5.1592 H         1 <0>         0.0937
     52 H20        -1.5193    3.9052    5.4862 H         1 <0>         0.0949
     53 H21        -3.3440    4.6056    3.9602 H         1 <0>         0.1339
     54 H22        -3.7260    2.8981    3.6333 H         1 <0>         0.1329
     55 H23        -2.9497    4.3429    7.1227 H         1 <0>         0.1345
     56 H24        -3.5737    5.5601    5.9624 H         1 <0>         0.1349
     57 H25        -5.1048    4.0731    8.1685 H         1 <0>         0.0979
     58 H26        -5.1007    5.8306    7.8070 H         1 <0>         0.1174
     59 H27        -7.0288    4.0595    6.8295 H         1 <0>         0.1053
     60 H28        -6.5778    5.5839    6.0078 H         1 <0>         0.1045
     61 H29        -5.6423    4.3923    4.2910 H         1 <0>         0.1316
     62 H30        -6.1260    2.8710    5.0930 H         1 <0>         0.1322
     63 H31        -4.0998    2.6598    6.0300 H         1 <0>         0.4273
@<TRIPOS>BOND
     1    1    2 1
     2    1   33 1
     3    1   34 1
     4    1   35 1
     5    2    7 ar
     6    2    3 ar
     7    3    4 ar
     8    3   36 1
     9    4    5 ar
    10    4   37 1
    11    5    6 ar
    12    5   38 1
    13    6    7 ar
    14    6    8 1
    15    8   12 2
    16    8    9 1
    17    9   10 2
    18    9   16 1
    19   10   15 1
    20   10   11 1
    21   11   12 1
    22   11   13 1
    23   13   14 1
    24   13   39 1
    25   13   40 1
    26   14   15 1
    27   14   41 1
    28   14   42 1
    29   15   43 1
    30   15   44 1
    31   16   21 ar
    32   16   17 ar
    33   17   18 ar
    34   17   45 1
    35   18   19 ar
    36   18   46 1
    37   19   24 1
    38   19   20 ar
    39   20   21 ar
    40   20   22 1
    41   21   47 1
    42   22   23 1
    43   22   25 1
    44   23   24 2
    45   23   48 1
    46   25   26 1
    47   25   49 1
    48   25   50 1
    49   26   27 1
    50   26   51 1
    51   26   52 1
    52   27   28 1
    53   27   53 1
    54   27   54 1
    55   28   32 1
    56   28   29 1
    57   28   63 1
    58   29   30 1
    59   29   55 1
    60   29   56 1
    61   30   31 1
    62   30   57 1
    63   30   58 1
    64   31   32 1
    65   31   59 1
    66   31   60 1
    67   32   61 1
    68   32   62 1
@<TRIPOS>MOLECULE
CHEMBL260239
   63    68     0     0     0
SMALL
USER_CHARGES

@<TRIPOS>ATOM
      1 C1          2.4227    2.8510    3.6657 C.3       1 <0>        -0.0529
      2 N1          2.0009    3.9424    2.7775 N.4       1 <0>        -0.3868
      3 C2          1.1792    4.8981    3.5321 C.3       1 <0>        -0.0475
      4 C3          3.1869    4.6282    2.2472 C.3       1 <0>         0.0491
      5 C4          3.9659    3.6804    1.3720 C.ar      1 <0>        -0.2035
      6 C5          4.9518    2.8835    1.9242 C.ar      1 <0>        -0.0533
      7 C6          5.6670    2.0136    1.1244 C.ar      1 <0>        -0.1919
      8 C7          5.3953    1.9398   -0.2344 C.ar      1 <0>         0.1656
      9 C8          4.4054    2.7405   -0.7860 C.ar      1 <0>        -0.1439
     10 C9          3.6895    3.6050    0.0193 C.ar      1 <0>        -0.0525
     11 O1          6.0977    1.0851   -1.0235 O.3       1 <0>        -0.2455
     12 C10         7.0531    0.3168   -0.4389 C.ar      1 <0>         0.0825
     13 C11         6.7130   -0.9402    0.0708 C.ar      1 <0>        -0.1360
     14 C12         7.6521   -1.7292    0.6606 C.ar      1 <0>        -0.0619
     15 C13         8.9765   -1.2817    0.7609 C.ar      1 <0>        -0.0857
     16 C14         9.9782   -2.0800    1.3692 C.ar      1 <0>         0.0865
     17 C15        11.2687   -1.5672    1.4305 C.ar      1 <0>        -0.1415
     18 C16        11.5339   -0.3105    0.9036 C.ar      1 <0>         0.1492
     19 N2         10.5969    0.4181    0.3436 N.ar      1 <0>        -0.4784
     20 C17         9.3330   -0.0109    0.2487 C.ar      1 <0>         0.1411
     21 C18         8.3462    0.7819   -0.3601 C.ar      1 <0>        -0.0898
     22 C19         9.6600   -3.4155    1.9211 C.2       1 <0>        -0.1829
     23 C20         9.7165   -4.6098    1.2553 C.2       1 <0>         0.0920
     24 N3          9.3568   -5.5858    2.1069 N.pl3     1 <0>        -0.3808
     25 N4          9.0531   -5.0163    3.3555 N.2       1 <0>        -0.2425
     26 C21         9.2300   -3.7168    3.2863 C.2       1 <0>         0.1389
     27 C22         9.0278   -2.7401    4.3826 C.ar      1 <0>         0.1999
     28 C23         8.1590   -3.0454    5.4291 C.ar      1 <0>        -0.1402
     29 C24         7.9806   -2.1235    6.4454 C.ar      1 <0>        -0.0744
     30 C25         8.6775   -0.9246    6.3825 C.ar      1 <0>        -0.1653
     31 C26         9.5232   -0.6871    5.3151 C.ar      1 <0>         0.1039
     32 N5          9.6794   -1.5843    4.3628 N.ar      1 <0>        -0.4575
     33 C27         9.4063   -6.9031    1.4471 C.3       1 <0>         0.1265
     34 C28         9.4243   -6.6078   -0.0676 C.3       1 <0>        -0.1316
     35 C29        10.0446   -5.1929   -0.1038 C.3       1 <0>        -0.0708
     36 H1          3.0324    2.1419    3.1058 H         1 <0>         0.1225
     37 H2          3.0059    3.2592    4.4912 H         1 <0>         0.1214
     38 H3          1.5427    2.3422    4.0592 H         1 <0>         0.1232
     39 H4          1.7624    5.3062    4.3576 H         1 <0>         0.1218
     40 H5          0.8663    5.7079    2.8730 H         1 <0>         0.1237
     41 H6          0.2992    4.3892    3.9255 H         1 <0>         0.1237
     42 H7          2.8749    5.4918    1.6598 H         1 <0>         0.1364
     43 H8          3.8154    4.9590    3.0740 H         1 <0>         0.1338
     44 H9          5.1631    2.9416    2.9818 H         1 <0>         0.1332
     45 H10         6.4372    1.3916    1.5561 H         1 <0>         0.1399
     46 H11         4.1920    2.6850   -1.8432 H         1 <0>         0.1464
     47 H12         2.9159    4.2252   -0.4087 H         1 <0>         0.1397
     48 H13         5.6935   -1.2887   -0.0041 H         1 <0>         0.1329
     49 H14         7.3772   -2.6980    1.0509 H         1 <0>         0.1330
     50 H15        12.0607   -2.1432    1.8859 H         1 <0>         0.1394
     51 H16        12.5399    0.0789    0.9563 H         1 <0>         0.1648
     52 H17         8.5997    1.7524   -0.7604 H         1 <0>         0.1450
     53 H18         7.6323   -3.9881    5.4462 H         1 <0>         0.1402
     54 H19         7.3138   -2.3319    7.2690 H         1 <0>         0.1400
     55 H20         8.5597   -0.1843    7.1599 H         1 <0>         0.1384
     56 H21        10.0668    0.2448    5.2634 H         1 <0>         0.1598
     57 H22        10.3114   -7.4364    1.7378 H         1 <0>         0.0965
     58 H23         8.5238   -7.4879    1.7065 H         1 <0>         0.0985
     59 H24        10.0534   -7.3232   -0.5972 H         1 <0>         0.1091
     60 H25         8.4138   -6.6018   -0.4761 H         1 <0>         0.0909
     61 H26         9.5892   -4.5970   -0.8948 H         1 <0>         0.0986
     62 H27        11.1241   -5.2524   -0.2430 H         1 <0>         0.1029
     63 H28         1.4611    3.5646    2.0133 H         1 <0>         0.4260
@<TRIPOS>BOND
     1    1    2 1
     2    1   36 1
     3    1   37 1
     4    1   38 1
     5    2    3 1
     6    2    4 1
     7    2   63 1
     8    3   39 1
     9    3   40 1
    10    3   41 1
    11    4    5 1
    12    4   42 1
    13    4   43 1
    14    5   10 ar
    15    5    6 ar
    16    6    7 ar
    17    6   44 1
    18    7    8 ar
    19    7   45 1
    20    8    9 ar
    21    8   11 1
    22    9   10 ar
    23    9   46 1
    24   10   47 1
    25   11   12 1
    26   12   21 ar
    27   12   13 ar
    28   13   14 ar
    29   13   48 1
    30   14   15 ar
    31   14   49 1
    32   15   20 ar
    33   15   16 ar
    34   16   17 ar
    35   16   22 1
    36   17   18 ar
    37   17   50 1
    38   18   19 ar
    39   18   51 1
    40   19   20 ar
    41   20   21 ar
    42   21   52 1
    43   22   26 1
    44   22   23 2
    45   23   35 1
    46   23   24 1
    47   24   25 1
    48   24   33 1
    49   25   26 2
    50   26   27 1
    51   27   32 ar
    52   27   28 ar
    53   28   29 ar
    54   28   53 1
    55   29   30 ar
    56   29   54 1
    57   30   31 ar
    58   30   55 1
    59   31   32 ar
    60   31   56 1
    61   33   34 1
    62   33   57 1
    63   33   58 1
    64   34   35 1
    65   34   59 1
    66   34   60 1
    67   35   61 1
    68   35   62 1
@<TRIPOS>MOLECULE
CHEMBL566234
   57    61     0     0     0
SMALL
USER_CHARGES

@<TRIPOS>ATOM
      1 C1         -0.0167    1.3795    0.0096 C.ar      1 <0>        -0.0733
      2 C2          1.1938    2.0587    0.0017 C.ar      1 <0>        -0.1590
      3 C3          2.3745    1.3401   -0.0134 C.ar      1 <0>         0.1023
      4 N1          2.3646    0.0224   -0.0204 N.ar      1 <0>        -0.4607
      5 C4          1.2295   -0.6646   -0.0132 C.ar      1 <0>         0.1854
      6 C5          0.0021   -0.0041    0.0020 C.ar      1 <0>        -0.1365
      7 C6          1.2668   -2.1464   -0.0221 C.2       1 <0>         0.1442
      8 C7          2.3238   -2.9528   -0.5161 C.2       1 <0>        -0.1895
      9 C8          1.9627   -4.2551   -0.3374 C.2       1 <0>         0.0838
     10 N2          0.7439   -4.2707    0.2383 N.pl3     1 <0>        -0.4581
     11 H1          0.2416   -5.0641    0.4810 H         1 <0>         0.4495
     12 N3          0.3283   -2.9479    0.4320 N.2       1 <0>        -0.2645
     13 C9          3.5896   -2.4681   -1.1173 C.ar      1 <0>         0.0677
     14 C10         3.5795   -1.5051   -2.1325 C.ar      1 <0>        -0.1232
     15 C11         4.7772   -1.0783   -2.6680 C.ar      1 <0>         0.1093
     16 N4          5.9251   -1.5635   -2.2377 N.ar      1 <0>        -0.4762
     17 C12         5.9844   -2.4778   -1.2774 C.ar      1 <0>         0.1391
     18 C13         4.8226   -2.9565   -0.6813 C.ar      1 <0>        -0.1461
     19 C14         7.3034   -2.9901   -0.8315 C.ar      1 <0>         0.0083
     20 C15         7.3762   -3.9543    0.1720 C.ar      1 <0>        -0.1052
     21 C16         8.6059   -4.4277    0.5826 C.ar      1 <0>        -0.0912
     22 C17         9.7647   -3.9465    0.0003 C.ar      1 <0>        -0.1679
     23 C18         9.6983   -2.9891   -0.9958 C.ar      1 <0>        -0.0924
     24 C19         8.4737   -2.5131   -1.4185 C.ar      1 <0>        -0.0826
     25 C20        11.1045   -4.4670    0.4533 C.3       1 <0>         0.0425
     26 N5         11.4746   -5.6360   -0.3556 N.4       1 <0>        -0.5016
     27 C21        12.7806   -6.1433    0.0859 C.3       1 <0>        -0.0143
     28 C22        13.2217   -7.2882   -0.8312 C.3       1 <0>        -0.1453
     29 C23        14.5458   -7.8598   -0.3151 C.3       1 <0>        -0.1532
     30 C24        14.3656   -8.3140    1.1357 C.3       1 <0>         0.0451
     31 O1         13.9252   -7.2094    1.9281 O.3       1 <0>        -0.3528
     32 C25        12.6686   -6.6638    1.5213 C.3       1 <0>         0.0451
     33 H2         -0.9522    1.9188    0.0259 H         1 <0>         0.1419
     34 H3          1.2130    3.1385    0.0070 H         1 <0>         0.1406
     35 H4          3.3180    1.8657   -0.0200 H         1 <0>         0.1601
     36 H5         -0.9212   -0.5643    0.0082 H         1 <0>         0.1410
     37 H6          2.5490   -5.1206   -0.6087 H         1 <0>         0.1858
     38 H7          2.6450   -1.1009   -2.4929 H         1 <0>         0.1303
     39 H8          4.7743   -0.3354   -3.4519 H         1 <0>         0.1606
     40 H9          4.8732   -3.6971    0.1031 H         1 <0>         0.1335
     41 H10         6.4721   -4.3302    0.6278 H         1 <0>         0.1383
     42 H11         8.6635   -5.1750    1.3602 H         1 <0>         0.1336
     43 H12        10.6062   -2.6166   -1.4468 H         1 <0>         0.1339
     44 H13         8.4228   -1.7691   -2.1997 H         1 <0>         0.1480
     45 H14        11.8569   -3.6878    0.3315 H         1 <0>         0.1403
     46 H15        11.0464   -4.7551    1.5029 H         1 <0>         0.1380
     47 H16        10.7780   -6.3572   -0.2429 H         1 <0>         0.4254
     48 H17        13.5159   -5.3396    0.0462 H         1 <0>         0.1490
     49 H18        12.4619   -8.0698   -0.8299 H         1 <0>         0.0893
     50 H19        13.3576   -6.9116   -1.8450 H         1 <0>         0.0959
     51 H20        14.8391   -8.7111   -0.9295 H         1 <0>         0.0996
     52 H21        15.3176   -7.0916   -0.3631 H         1 <0>         0.0868
     53 H22        13.6227   -9.1106    1.1777 H         1 <0>         0.0645
     54 H23        15.3160   -8.6824    1.5220 H         1 <0>         0.1151
     55 H24        12.3965   -5.8433    2.1852 H         1 <0>         0.1155
     56 H25        11.9035   -7.4387    1.5683 H         1 <0>         0.0743
     57 H26        11.5284   -5.3693   -1.3273 H         1 <0>         0.4303
@<TRIPOS>BOND
     1    1    6 ar
     2    1    2 ar
     3    1   33 1
     4    2    3 ar
     5    2   34 1
     6    3    4 ar
     7    3   35 1
     8    4    5 ar
     9    5    6 ar
    10    5    7 1
    11    6   36 1
    12    7   12 2
    13    7    8 1
    14    8    9 2
    15    8   13 1
    16    9   10 1
    17    9   37 1
    18   10   11 1
    19   10   12 1
    20   13   18 ar
    21   13   14 ar
    22   14   15 ar
    23   14   38 1
    24   15   16 ar
    25   15   39 1
    26   16   17 ar
    27   17   18 ar
    28   17   19 1
    29   18   40 1
    30   19   24 ar
    31   19   20 ar
    32   20   21 ar
    33   20   41 1
    34   21   22 ar
    35   21   42 1
    36   22   23 ar
    37   22   25 1
    38   23   24 ar
    39   23   43 1
    40   24   44 1
    41   25   26 1
    42   25   45 1
    43   25   46 1
    44   26   27 1
    45   26   47 1
    46   26   57 1
    47   27   32 1
    48   27   28 1
    49   27   48 1
    50   28   29 1
    51   28   49 1
    52   28   50 1
    53   29   30 1
    54   29   51 1
    55   29   52 1
    56   30   31 1
    57   30   53 1
    58   30   54 1
    59   31   32 1
    60   32   55 1
    61   32   56 1
@<TRIPOS>MOLECULE
CHEMBL566234__1
   57    61     0     0     0
SMALL
USER_CHARGES

@<TRIPOS>ATOM
      1 C1         -0.0167    1.3791    0.0096 C.ar      1 <0>        -0.0665
      2 C2          1.1939    2.0588    0.0017 C.ar      1 <0>        -0.1563
      3 C3          2.3757    1.3409   -0.0134 C.ar      1 <0>         0.1086
      4 N1          2.3675    0.0237   -0.0209 N.ar      1 <0>        -0.4540
      5 C4          1.2315   -0.6652   -0.0137 C.ar      1 <0>         0.1680
      6 C5          0.0021   -0.0041    0.0020 C.ar      1 <0>        -0.1544
      7 C6          1.2697   -2.1418   -0.0230 C.2       1 <0>         0.1547
      8 C7          2.2978   -2.9388   -0.5099 C.2       1 <0>        -0.1780
      9 C8          1.9145   -4.2780   -0.3185 C.2       1 <0>         0.0693
     10 N2          0.7361   -4.2963    0.2452 N.2       1 <0>        -0.2669
     11 H1         -0.5337   -2.7121    0.8551 H         1 <0>         0.4456
     12 N3          0.3057   -2.9803    0.4497 N.pl3     1 <0>        -0.4572
     13 C9          3.5636   -2.4655   -1.1182 C.ar      1 <0>         0.0676
     14 C10         3.5560   -1.5051   -2.1365 C.ar      1 <0>        -0.1269
     15 C11         4.7544   -1.0889   -2.6786 C.ar      1 <0>         0.1091
     16 N4          5.9007   -1.5815   -2.2522 N.ar      1 <0>        -0.4763
     17 C12         5.9578   -2.4934   -1.2895 C.ar      1 <0>         0.1401
     18 C13         4.7954   -2.9618   -0.6865 C.ar      1 <0>        -0.1428
     19 C14         7.2751   -3.0141   -0.8484 C.ar      1 <0>         0.0076
     20 C15         7.3457   -3.9759    0.1576 C.ar      1 <0>        -0.1044
     21 C16         8.5739   -4.4567    0.5641 C.ar      1 <0>        -0.0910
     22 C17         9.7334   -3.9854   -0.0248 C.ar      1 <0>        -0.1677
     23 C18         9.6692   -3.0308   -1.0238 C.ar      1 <0>        -0.0928
     24 C19         8.4461   -2.5475   -1.4425 C.ar      1 <0>        -0.0826
     25 C20        11.0715   -4.5135    0.4240 C.3       1 <0>         0.0426
     26 N5         11.4301   -5.6877   -0.3827 N.4       1 <0>        -0.5017
     27 C21        12.7345   -6.2026    0.0548 C.3       1 <0>        -0.0142
     28 C22        13.1637   -7.3535   -0.8604 C.3       1 <0>        -0.1454
     29 C23        14.4861   -7.9325   -0.3482 C.3       1 <0>        -0.1531
     30 C24        14.3091   -8.3807    1.1049 C.3       1 <0>         0.0451
     31 O1         13.8798   -7.2705    1.8955 O.3       1 <0>        -0.3529
     32 C25        12.6252   -6.7176    1.4924 C.3       1 <0>         0.0451
     33 H2         -0.9523    1.9183    0.0259 H         1 <0>         0.1443
     34 H3          1.2124    3.1386    0.0070 H         1 <0>         0.1437
     35 H4          3.3185    1.8676   -0.0196 H         1 <0>         0.1636
     36 H5         -0.9212   -0.5644    0.0078 H         1 <0>         0.1350
     37 H6          2.4963   -5.1458   -0.5921 H         1 <0>         0.1919
     38 H7          2.6230   -1.0950   -2.4938 H         1 <0>         0.1286
     39 H8          4.7535   -0.3484   -3.4647 H         1 <0>         0.1600
     40 H9          4.8444   -3.7002    0.1001 H         1 <0>         0.1355
     41 H10         6.4410   -4.3440    0.6186 H         1 <0>         0.1393
     42 H11         8.6297   -5.2020    1.3436 H         1 <0>         0.1340
     43 H12        10.5777   -2.6661   -1.4800 H         1 <0>         0.1337
     44 H13         8.3969   -1.8057   -2.2259 H         1 <0>         0.1477
     45 H14        11.8288   -3.7400    0.2963 H         1 <0>         0.1401
     46 H15        11.0161   -4.7978    1.4748 H         1 <0>         0.1380
     47 H16        10.7291   -6.4038   -0.2645 H         1 <0>         0.4257
     48 H17        13.4751   -5.4041    0.0092 H         1 <0>         0.1488
     49 H18        12.3986   -8.1298   -0.8532 H         1 <0>         0.0895
     50 H19        13.2977   -6.9812   -1.8760 H         1 <0>         0.0959
     51 H20        14.7708   -8.7878   -0.9611 H         1 <0>         0.0995
     52 H21        15.2629   -7.1698   -0.4021 H         1 <0>         0.0867
     53 H22        13.5610   -9.1720    1.1527 H         1 <0>         0.0646
     54 H23        15.2586   -8.7544    1.4882 H         1 <0>         0.1150
     55 H24        12.3617   -5.8931    2.1548 H         1 <0>         0.1155
     56 H25        11.8550   -7.4871    1.5453 H         1 <0>         0.0745
     57 H26        11.4814   -5.4246   -1.3554 H         1 <0>         0.4302
@<TRIPOS>BOND
     1    1    6 ar
     2    1    2 ar
     3    1   33 1
     4    2    3 ar
     5    2   34 1
     6    3    4 ar
     7    3   35 1
     8    4    5 ar
     9    5    6 ar
    10    5    7 1
    11    6   36 1
    12    7    8 2
    13    7   12 1
    14    8    9 1
    15    8   13 1
    16    9   10 2
    17    9   37 1
    18   10   12 1
    19   11   12 1
    20   13   18 ar
    21   13   14 ar
    22   14   15 ar
    23   14   38 1
    24   15   16 ar
    25   15   39 1
    26   16   17 ar
    27   17   18 ar
    28   17   19 1
    29   18   40 1
    30   19   24 ar
    31   19   20 ar
    32   20   21 ar
    33   20   41 1
    34   21   22 ar
    35   21   42 1
    36   22   23 ar
    37   22   25 1
    38   23   24 ar
    39   23   43 1
    40   24   44 1
    41   25   26 1
    42   25   45 1
    43   25   46 1
    44   26   27 1
    45   26   47 1
    46   26   57 1
    47   27   32 1
    48   27   28 1
    49   27   48 1
    50   28   29 1
    51   28   49 1
    52   28   50 1
    53   29   30 1
    54   29   51 1
    55   29   52 1
    56   30   31 1
    57   30   53 1
    58   30   54 1
    59   31   32 1
    60   32   55 1
    61   32   56 1
@<TRIPOS>MOLECULE
CHEMBL566234__2
   57    61     0     0     0
SMALL
USER_CHARGES

@<TRIPOS>ATOM
      1 C1         -0.0167    1.3795    0.0096 C.ar      1 <0>        -0.0733
      2 C2          1.1938    2.0587    0.0017 C.ar      1 <0>        -0.1591
      3 C3          2.3745    1.3401   -0.0134 C.ar      1 <0>         0.1023
      4 N1          2.3646    0.0224   -0.0204 N.ar      1 <0>        -0.4607
      5 C4          1.2295   -0.6646   -0.0132 C.ar      1 <0>         0.1854
      6 C5          0.0021   -0.0041    0.0020 C.ar      1 <0>        -0.1366
      7 C6          1.2668   -2.1464   -0.0221 C.2       1 <0>         0.1442
      8 C7          2.3238   -2.9528   -0.5161 C.2       1 <0>        -0.1895
      9 C8          1.9627   -4.2551   -0.3374 C.2       1 <0>         0.0838
     10 N2          0.7439   -4.2707    0.2383 N.pl3     1 <0>        -0.4580
     11 H1          0.2416   -5.0641    0.4810 H         1 <0>         0.4495
     12 N3          0.3283   -2.9479    0.4320 N.2       1 <0>        -0.2645
     13 C9          3.5896   -2.4681   -1.1173 C.ar      1 <0>         0.0677
     14 C10         3.5795   -1.5051   -2.1325 C.ar      1 <0>        -0.1232
     15 C11         4.7772   -1.0783   -2.6680 C.ar      1 <0>         0.1093
     16 N4          5.9251   -1.5635   -2.2377 N.ar      1 <0>        -0.4762
     17 C12         5.9844   -2.4778   -1.2774 C.ar      1 <0>         0.1391
     18 C13         4.8226   -2.9565   -0.6813 C.ar      1 <0>        -0.1462
     19 C14         7.3034   -2.9901   -0.8315 C.ar      1 <0>         0.0083
     20 C15         7.3762   -3.9543    0.1720 C.ar      1 <0>        -0.1052
     21 C16         8.6059   -4.4277    0.5826 C.ar      1 <0>        -0.0907
     22 C17         9.7647   -3.9465    0.0003 C.ar      1 <0>        -0.1679
     23 C18         9.6983   -2.9891   -0.9958 C.ar      1 <0>        -0.0930
     24 C19         8.4737   -2.5131   -1.4185 C.ar      1 <0>        -0.0825
     25 C20        11.1045   -4.4670    0.4533 C.3       1 <0>         0.0425
     26 N5         11.4746   -5.6360   -0.3556 N.4       1 <0>        -0.5016
     27 C21        12.7806   -6.1433    0.0859 C.3       1 <0>        -0.0142
     28 C22        13.1143   -7.4296   -0.6759 C.3       1 <0>        -0.1453
     29 C23        14.5107   -7.9061   -0.2644 C.3       1 <0>        -0.1530
     30 C24        15.5229   -6.7903   -0.5368 C.3       1 <0>         0.0450
     31 O1         15.1369   -5.6140    0.1770 O.3       1 <0>        -0.3528
     32 C25        13.8597   -5.0956   -0.2000 C.3       1 <0>         0.0448
     33 H2         -0.9522    1.9188    0.0259 H         1 <0>         0.1419
     34 H3          1.2130    3.1385    0.0070 H         1 <0>         0.1406
     35 H4          3.3180    1.8657   -0.0200 H         1 <0>         0.1601
     36 H5         -0.9212   -0.5643    0.0082 H         1 <0>         0.1410
     37 H6          2.5490   -5.1206   -0.6087 H         1 <0>         0.1857
     38 H7          2.6450   -1.1009   -2.4929 H         1 <0>         0.1303
     39 H8          4.7743   -0.3354   -3.4519 H         1 <0>         0.1606
     40 H9          4.8732   -3.6971    0.1031 H         1 <0>         0.1334
     41 H10         6.4721   -4.3302    0.6278 H         1 <0>         0.1382
     42 H11         8.6635   -5.1750    1.3602 H         1 <0>         0.1337
     43 H12        10.6062   -2.6166   -1.4468 H         1 <0>         0.1338
     44 H13         8.4228   -1.7691   -2.1997 H         1 <0>         0.1481
     45 H14        11.8569   -3.6878    0.3315 H         1 <0>         0.1384
     46 H15        11.0464   -4.7551    1.5029 H         1 <0>         0.1399
     47 H16        10.7780   -6.3572   -0.2429 H         1 <0>         0.4296
     48 H17        12.7483   -6.3503    1.1556 H         1 <0>         0.1486
     49 H18        12.3805   -8.1981   -0.4329 H         1 <0>         0.0955
     50 H19        13.0972   -7.2333   -1.7480 H         1 <0>         0.0896
     51 H20        14.5141   -8.1495    0.7981 H         1 <0>         0.0866
     52 H21        14.7789   -8.7903   -0.8425 H         1 <0>         0.0995
     53 H22        16.5118   -7.1080   -0.2062 H         1 <0>         0.1151
     54 H23        15.5483   -6.5753   -1.6051 H         1 <0>         0.0648
     55 H24        13.8633   -4.8585   -1.2639 H         1 <0>         0.0748
     56 H25        13.6504   -4.1924    0.3732 H         1 <0>         0.1157
     57 H26        11.5284   -5.3693   -1.3273 H         1 <0>         0.4261
@<TRIPOS>BOND
     1    1    6 ar
     2    1    2 ar
     3    1   33 1
     4    2    3 ar
     5    2   34 1
     6    3    4 ar
     7    3   35 1
     8    4    5 ar
     9    5    6 ar
    10    5    7 1
    11    6   36 1
    12    7   12 2
    13    7    8 1
    14    8    9 2
    15    8   13 1
    16    9   10 1
    17    9   37 1
    18   10   11 1
    19   10   12 1
    20   13   18 ar
    21   13   14 ar
    22   14   15 ar
    23   14   38 1
    24   15   16 ar
    25   15   39 1
    26   16   17 ar
    27   17   18 ar
    28   17   19 1
    29   18   40 1
    30   19   24 ar
    31   19   20 ar
    32   20   21 ar
    33   20   41 1
    34   21   22 ar
    35   21   42 1
    36   22   23 ar
    37   22   25 1
    38   23   24 ar
    39   23   43 1
    40   24   44 1
    41   25   26 1
    42   25   45 1
    43   25   46 1
    44   26   27 1
    45   26   47 1
    46   26   57 1
    47   27   32 1
    48   27   28 1
    49   27   48 1
    50   28   29 1
    51   28   49 1
    52   28   50 1
    53   29   30 1
    54   29   51 1
    55   29   52 1
    56   30   31 1
    57   30   53 1
    58   30   54 1
    59   31   32 1
    60   32   55 1
    61   32   56 1
@<TRIPOS>MOLECULE
CHEMBL566234__3
   57    61     0     0     0
SMALL
USER_CHARGES

@<TRIPOS>ATOM
      1 C1         -0.0167    1.3791    0.0096 C.ar      1 <0>        -0.0665
      2 C2          1.1939    2.0588    0.0017 C.ar      1 <0>        -0.1563
      3 C3          2.3757    1.3409   -0.0134 C.ar      1 <0>         0.1086
      4 N1          2.3675    0.0237   -0.0209 N.ar      1 <0>        -0.4540
      5 C4          1.2315   -0.6652   -0.0137 C.ar      1 <0>         0.1681
      6 C5          0.0021   -0.0041    0.0020 C.ar      1 <0>        -0.1544
      7 C6          1.2697   -2.1418   -0.0230 C.2       1 <0>         0.1547
      8 C7          2.2978   -2.9388   -0.5099 C.2       1 <0>        -0.1780
      9 C8          1.9145   -4.2780   -0.3185 C.2       1 <0>         0.0693
     10 N2          0.7361   -4.2963    0.2452 N.2       1 <0>        -0.2669
     11 H1         -0.5337   -2.7121    0.8551 H         1 <0>         0.4456
     12 N3          0.3057   -2.9803    0.4497 N.pl3     1 <0>        -0.4572
     13 C9          3.5636   -2.4655   -1.1182 C.ar      1 <0>         0.0676
     14 C10         3.5560   -1.5051   -2.1365 C.ar      1 <0>        -0.1269
     15 C11         4.7544   -1.0889   -2.6786 C.ar      1 <0>         0.1091
     16 N4          5.9007   -1.5815   -2.2522 N.ar      1 <0>        -0.4763
     17 C12         5.9578   -2.4934   -1.2895 C.ar      1 <0>         0.1401
     18 C13         4.7954   -2.9618   -0.6865 C.ar      1 <0>        -0.1429
     19 C14         7.2751   -3.0141   -0.8484 C.ar      1 <0>         0.0076
     20 C15         7.3457   -3.9759    0.1576 C.ar      1 <0>        -0.1045
     21 C16         8.5739   -4.4567    0.5641 C.ar      1 <0>        -0.0904
     22 C17         9.7334   -3.9854   -0.0248 C.ar      1 <0>        -0.1677
     23 C18         9.6692   -3.0308   -1.0238 C.ar      1 <0>        -0.0934
     24 C19         8.4461   -2.5475   -1.4425 C.ar      1 <0>        -0.0825
     25 C20        11.0715   -4.5135    0.4240 C.3       1 <0>         0.0426
     26 N5         11.4301   -5.6877   -0.3827 N.4       1 <0>        -0.5017
     27 C21        12.7345   -6.2026    0.0548 C.3       1 <0>        -0.0142
     28 C22        13.0560   -7.4936   -0.7042 C.3       1 <0>        -0.1454
     29 C23        14.4509   -7.9783   -0.2972 C.3       1 <0>        -0.1531
     30 C24        15.4695   -6.8705   -0.5777 C.3       1 <0>         0.0450
     31 O1         15.0947   -5.6893    0.1339 O.3       1 <0>        -0.3529
     32 C25        13.8195   -5.1633   -0.2393 C.3       1 <0>         0.0449
     33 H2         -0.9523    1.9183    0.0259 H         1 <0>         0.1443
     34 H3          1.2124    3.1386    0.0070 H         1 <0>         0.1437
     35 H4          3.3185    1.8676   -0.0196 H         1 <0>         0.1636
     36 H5         -0.9212   -0.5644    0.0078 H         1 <0>         0.1350
     37 H6          2.4963   -5.1458   -0.5921 H         1 <0>         0.1919
     38 H7          2.6230   -1.0950   -2.4938 H         1 <0>         0.1286
     39 H8          4.7535   -0.3484   -3.4647 H         1 <0>         0.1600
     40 H9          4.8444   -3.7002    0.1001 H         1 <0>         0.1355
     41 H10         6.4410   -4.3440    0.6186 H         1 <0>         0.1393
     42 H11         8.6297   -5.2020    1.3436 H         1 <0>         0.1341
     43 H12        10.5777   -2.6661   -1.4800 H         1 <0>         0.1336
     44 H13         8.3969   -1.8057   -2.2259 H         1 <0>         0.1478
     45 H14        11.8288   -3.7400    0.2963 H         1 <0>         0.1382
     46 H15        11.0161   -4.7978    1.4748 H         1 <0>         0.1399
     47 H16        10.7291   -6.4038   -0.2645 H         1 <0>         0.4299
     48 H17        12.7054   -6.4059    1.1253 H         1 <0>         0.1487
     49 H18        12.3180   -8.2562   -0.4554 H         1 <0>         0.0957
     50 H19        13.0355   -7.3007   -1.7768 H         1 <0>         0.0896
     51 H20        14.4572   -8.2184    0.7660 H         1 <0>         0.0866
     52 H21        14.7105   -8.8663   -0.8736 H         1 <0>         0.0995
     53 H22        16.4577   -7.1939   -0.2503 H         1 <0>         0.1150
     54 H23        15.4917   -6.6592   -1.6468 H         1 <0>         0.0648
     55 H24        13.8200   -4.9297   -1.3039 H         1 <0>         0.0748
     56 H25        13.6189   -4.2568    0.3319 H         1 <0>         0.1156
     57 H26        11.4814   -5.4246   -1.3554 H         1 <0>         0.4260
@<TRIPOS>BOND
     1    1    6 ar
     2    1    2 ar
     3    1   33 1
     4    2    3 ar
     5    2   34 1
     6    3    4 ar
     7    3   35 1
     8    4    5 ar
     9    5    6 ar
    10    5    7 1
    11    6   36 1
    12    7    8 2
    13    7   12 1
    14    8    9 1
    15    8   13 1
    16    9   10 2
    17    9   37 1
    18   10   12 1
    19   11   12 1
    20   13   18 ar
    21   13   14 ar
    22   14   15 ar
    23   14   38 1
    24   15   16 ar
    25   15   39 1
    26   16   17 ar
    27   17   18 ar
    28   17   19 1
    29   18   40 1
    30   19   24 ar
    31   19   20 ar
    32   20   21 ar
    33   20   41 1
    34   21   22 ar
    35   21   42 1
    36   22   23 ar
    37   22   25 1
    38   23   24 ar
    39   23   43 1
    40   24   44 1
    41   25   26 1
    42   25   45 1
    43   25   46 1
    44   26   27 1
    45   26   47 1
    46   26   57 1
    47   27   32 1
    48   27   28 1
    49   27   48 1
    50   28   29 1
    51   28   49 1
    52   28   50 1
    53   29   30 1
    54   29   51 1
    55   29   52 1
    56   30   31 1
    57   30   53 1
    58   30   54 1
    59   31   32 1
    60   32   55 1
    61   32   56 1
@<TRIPOS>MOLECULE
CHEMBL575311
   61    65     0     0     0
SMALL
USER_CHARGES

@<TRIPOS>ATOM
      1 C1         -5.1648   -2.1735   -1.9745 C.3       1 <0>        -0.1166
      2 C2         -3.8461   -2.6743   -1.4442 C.ar      1 <0>        -0.0857
      3 C3         -2.6800   -2.4701   -2.1649 C.ar      1 <0>        -0.1560
      4 C4         -1.4847   -2.9481   -1.6401 C.ar      1 <0>         0.1129
      5 C5         -1.5037   -3.6140   -0.4105 C.ar      1 <0>         0.1424
      6 N1         -2.6448   -3.7864    0.2433 N.ar      1 <0>        -0.4304
      7 C6         -3.7883   -3.3371   -0.2309 C.ar      1 <0>         0.0987
      8 C7         -5.0545   -3.5539    0.5570 C.3       1 <0>        -0.1018
      9 C8         -0.2396   -4.1313    0.1661 C.ar      1 <0>         0.1698
     10 C9         -0.1327   -4.3158    1.5434 C.ar      1 <0>        -0.1327
     11 C10         1.0536   -4.7999    2.0668 C.ar      1 <0>        -0.0807
     12 C11         2.0953   -5.0839    1.1949 C.ar      1 <0>        -0.1663
     13 C12         1.9204   -4.8771   -0.1610 C.ar      1 <0>         0.1000
     14 N2          0.7789   -4.4200   -0.6339 N.ar      1 <0>        -0.4532
     15 O1         -0.3173   -2.7717   -2.3110 O.3       1 <0>        -0.2178
     16 C13        -0.3689   -2.1960   -3.5392 C.ar      1 <0>         0.1677
     17 C14        -0.5370   -0.8182   -3.6758 C.ar      1 <0>        -0.2464
     18 C15        -0.5850   -0.2673   -4.9386 C.ar      1 <0>         0.1628
     19 N3         -0.4743   -1.0251   -6.0139 N.ar      1 <0>        -0.5261
     20 C16        -0.3134   -2.3379   -5.9288 C.ar      1 <0>         0.4106
     21 C17        -0.2497   -2.9645   -4.6911 C.ar      1 <0>        -0.2306
     22 N4         -0.2014   -3.0946   -7.0902 N.pl3     1 <0>        -0.6566
     23 C18        -0.1497   -2.4596   -8.3375 C.ar      1 <0>         0.1040
     24 C19         0.4595   -1.2177   -8.4597 C.ar      1 <0>        -0.0632
     25 C20         0.5100   -0.5915   -9.6892 C.ar      1 <0>        -0.1782
     26 C21        -0.0480   -1.2038  -10.8038 C.ar      1 <0>         0.2031
     27 C22        -0.6569   -2.4459  -10.6817 C.ar      1 <0>        -0.1780
     28 C23        -0.7028   -3.0745   -9.4531 C.ar      1 <0>        -0.1006
     29 N5          0.0028   -0.5688  -12.0500 N.pl3     1 <0>        -0.6352
     30 C24        -0.6924   -1.1343  -13.2172 C.3       1 <0>         0.0879
     31 C25        -1.5395   -0.0289  -13.8578 C.3       1 <0>         0.0454
     32 O2         -0.7157    1.1138  -14.1017 O.3       1 <0>        -0.3797
     33 C26        -0.1650    1.7012  -12.9203 C.3       1 <0>         0.0452
     34 C27         0.7478    0.6873  -12.2303 C.3       1 <0>         0.0871
     35 H1         -5.3365   -1.1571   -1.6201 H         1 <0>         0.0803
     36 H2         -5.1442   -2.1796   -3.0643 H         1 <0>         0.0711
     37 H3         -5.9676   -2.8214   -1.6226 H         1 <0>         0.0786
     38 H4         -2.6995   -1.9519   -3.1123 H         1 <0>         0.1441
     39 H5         -5.5064   -4.5017    0.2647 H         1 <0>         0.0789
     40 H6         -4.8209   -3.5757    1.6214 H         1 <0>         0.0788
     41 H7         -5.7520   -2.7411    0.3546 H         1 <0>         0.0787
     42 H8         -0.9637   -4.0840    2.1931 H         1 <0>         0.1419
     43 H9          1.1662   -4.9528    3.1300 H         1 <0>         0.1379
     44 H10         3.0338   -5.4626    1.5720 H         1 <0>         0.1367
     45 H11         2.7291   -5.0972   -0.8421 H         1 <0>         0.1584
     46 H12        -0.6288   -0.1901   -2.8021 H         1 <0>         0.1391
     47 H13        -0.7154    0.7990   -5.0497 H         1 <0>         0.1652
     48 H14        -0.1139   -4.0339   -4.6246 H         1 <0>         0.1423
     49 H15         0.8935   -0.7415   -7.5929 H         1 <0>         0.1350
     50 H16         0.9832    0.3747   -9.7841 H         1 <0>         0.1236
     51 H17        -1.0909   -2.9221  -11.5484 H         1 <0>         0.1241
     52 H18        -1.1727   -4.0423   -9.3589 H         1 <0>         0.1221
     53 H19         0.0387   -1.5008  -13.9378 H         1 <0>         0.0696
     54 H20        -1.3374   -1.9533  -12.8990 H         1 <0>         0.0915
     55 H21        -1.9532   -0.3873  -14.8004 H         1 <0>         0.1045
     56 H22        -2.3512    0.2447  -13.1837 H         1 <0>         0.0555
     57 H23         0.4102    2.5874  -13.1884 H         1 <0>         0.1049
     58 H24        -0.9717    1.9810  -12.2428 H         1 <0>         0.0554
     59 H25         1.0561    1.0740  -11.2590 H         1 <0>         0.0928
     60 H26         1.6264    0.5073  -12.8499 H         1 <0>         0.0696
     61 H27        -0.1591   -4.0622   -7.0365 H         1 <0>         0.4172
@<TRIPOS>BOND
     1    1    2 1
     2    1   35 1
     3    1   36 1
     4    1   37 1
     5    2    7 ar
     6    2    3 ar
     7    3    4 ar
     8    3   38 1
     9    4    5 ar
    10    4   15 1
    11    5    6 ar
    12    5    9 1
    13    6    7 ar
    14    7    8 1
    15    8   39 1
    16    8   40 1
    17    8   41 1
    18    9   14 ar
    19    9   10 ar
    20   10   11 ar
    21   10   42 1
    22   11   12 ar
    23   11   43 1
    24   12   13 ar
    25   12   44 1
    26   13   14 ar
    27   13   45 1
    28   15   16 1
    29   16   17 ar
    30   16   21 ar
    31   17   46 1
    32   17   18 ar
    33   18   47 1
    34   18   19 ar
    35   19   20 ar
    36   20   22 1
    37   20   21 ar
    38   21   48 1
    39   22   23 1
    40   22   61 1
    41   23   28 ar
    42   23   24 ar
    43   24   25 ar
    44   24   49 1
    45   25   26 ar
    46   25   50 1
    47   26   27 ar
    48   26   29 1
    49   27   28 ar
    50   27   51 1
    51   28   52 1
    52   29   34 1
    53   29   30 1
    54   30   31 1
    55   30   53 1
    56   30   54 1
    57   31   32 1
    58   31   55 1
    59   31   56 1
    60   32   33 1
    61   33   34 1
    62   33   57 1
    63   33   58 1
    64   34   59 1
    65   34   60 1
@<TRIPOS>MOLECULE
CHEMBL575311__1
   62    66     0     0     0
SMALL
USER_CHARGES

@<TRIPOS>ATOM
      1 C1         -5.6914   -1.7936   -2.6528 C.3       1 <0>        -0.1197
      2 C2         -4.4868   -2.3720   -1.9560 C.ar      1 <0>        -0.0858
      3 C3         -3.2276   -2.2532   -2.5226 C.ar      1 <0>        -0.1550
      4 C4         -2.1429   -2.8010   -1.8471 C.ar      1 <0>         0.0884
      5 C5         -2.3621   -3.4483   -0.6270 C.ar      1 <0>         0.1712
      6 N1         -3.5861   -3.5379   -0.1237 N.ar      1 <0>        -0.4266
      7 C6         -4.6277   -3.0215   -0.7423 C.ar      1 <0>         0.1219
      8 C7         -5.9955   -3.1456   -0.1218 C.3       1 <0>        -0.1105
      9 C8         -1.2186   -4.0390    0.1087 C.ar      1 <0>         0.1538
     10 C9         -1.3003   -4.2123    1.4892 C.ar      1 <0>        -0.1250
     11 C10        -0.2248   -4.7655    2.1622 C.ar      1 <0>        -0.0771
     12 C11         0.8983   -5.1278    1.4319 C.ar      1 <0>        -0.1561
     13 C12         0.9114   -4.9275    0.0638 C.ar      1 <0>         0.0987
     14 N2         -0.1279   -4.4035   -0.5532 N.ar      1 <0>        -0.4590
     15 O1         -0.8905   -2.7093   -2.3641 O.3       1 <0>        -0.2112
     16 C13        -0.7470   -2.1456   -3.5905 C.ar      1 <0>         0.2457
     17 C14        -0.7983   -0.7610   -3.7507 C.ar      1 <0>        -0.1985
     18 C15        -0.6487   -0.2227   -5.0110 C.ar      1 <0>         0.1679
     19 N3         -0.4587   -0.9987   -6.0619 N.ar      1 <0>        -0.5072
     20 C16        -0.4039   -2.3185   -5.9539 C.ar      1 <0>         0.4546
     21 C17        -0.5398   -2.9338   -4.7163 C.ar      1 <0>        -0.2057
     22 N4         -0.2022   -3.0946   -7.0902 N.pl3     1 <0>        -0.6227
     23 C18        -0.3282   -4.4876   -7.0182 C.ar      1 <0>         0.0360
     24 C19        -1.3630   -5.0543   -6.2857 C.ar      1 <0>        -0.0776
     25 C20        -1.4869   -6.4276   -6.2144 C.ar      1 <0>        -0.1773
     26 C21        -0.5771   -7.2422   -6.8756 C.ar      1 <0>         0.2417
     27 C22         0.4575   -6.6755   -7.6085 C.ar      1 <0>        -0.1771
     28 C23         0.5783   -5.3021   -7.6841 C.ar      1 <0>        -0.0564
     29 N5         -0.7024   -8.6343   -6.8029 N.pl3     1 <0>        -0.6215
     30 C24         0.3208   -9.5183   -7.3832 C.3       1 <0>         0.0804
     31 C25         0.7295  -10.5466   -6.3223 C.3       1 <0>         0.0450
     32 O2         -0.4425  -11.1838   -5.8083 O.3       1 <0>        -0.3738
     33 C26        -1.3461  -10.2981   -5.1429 C.3       1 <0>         0.0448
     34 C27        -1.8583   -9.2571   -6.1385 C.3       1 <0>         0.0802
     35 H1         -5.8394   -0.7637   -2.3278 H         1 <0>         0.0848
     36 H2         -5.5326   -1.8151   -3.7309 H         1 <0>         0.0708
     37 H3         -6.5734   -2.3835   -2.4035 H         1 <0>         0.0843
     38 H4         -3.0921   -1.7471   -3.4670 H         1 <0>         0.1381
     39 H5         -6.4681   -4.0658   -0.4652 H         1 <0>         0.0858
     40 H6         -5.9012   -3.1687    0.9639 H         1 <0>         0.0851
     41 H7         -6.6064   -2.2919   -0.4153 H         1 <0>         0.0837
     42 H8         -2.1901   -3.9187    2.0263 H         1 <0>         0.1445
     43 H9         -0.2588   -4.9117    3.2317 H         1 <0>         0.1424
     44 H10         1.7542   -5.5616    1.9276 H         1 <0>         0.1407
     45 H11         1.7840   -5.2083   -0.5073 H         1 <0>         0.1600
     46 H12        -0.9537   -0.1180   -2.8971 H         1 <0>         0.1865
     47 H13        -0.6880    0.8488   -5.1404 H         1 <0>         0.2161
     48 H14        -0.4899   -4.0092   -4.6306 H         1 <0>         0.1928
     49 H15        -0.3566   -0.5920   -6.9366 H         1 <0>         0.4454
     50 H16        -2.0706   -4.4208   -5.7715 H         1 <0>         0.1280
     51 H17        -2.2913   -6.8683   -5.6441 H         1 <0>         0.1368
     52 H18         1.1651   -7.3090   -8.1227 H         1 <0>         0.1390
     53 H19         1.3805   -4.8613   -8.2573 H         1 <0>         0.1351
     54 H20        -0.0882  -10.0315   -8.2535 H         1 <0>         0.0803
     55 H21         1.1897   -8.9300   -7.6782 H         1 <0>         0.0952
     56 H22         1.3827  -11.2941   -6.7724 H         1 <0>         0.1112
     57 H23         1.2557  -10.0433   -5.5111 H         1 <0>         0.0577
     58 H24        -2.1863  -10.8669   -4.7445 H         1 <0>         0.1106
     59 H25        -0.8275   -9.7939   -4.3275 H         1 <0>         0.0571
     60 H26        -2.4318   -8.4959   -5.6095 H         1 <0>         0.0940
     61 H27        -2.4905   -9.7436   -6.8813 H         1 <0>         0.0803
     62 H28         0.0257   -2.6711   -7.9326 H         1 <0>         0.4273
@<TRIPOS>BOND
     1    1    2 1
     2    1   35 1
     3    1   36 1
     4    1   37 1
     5    2    7 ar
     6    2    3 ar
     7    3    4 ar
     8    3   38 1
     9    4    5 ar
    10    4   15 1
    11    5    6 ar
    12    5    9 1
    13    6    7 ar
    14    7    8 1
    15    8   39 1
    16    8   40 1
    17    8   41 1
    18    9   14 ar
    19    9   10 ar
    20   10   11 ar
    21   10   42 1
    22   11   12 ar
    23   11   43 1
    24   12   13 ar
    25   12   44 1
    26   13   14 ar
    27   13   45 1
    28   15   16 1
    29   16   17 ar
    30   16   21 ar
    31   17   46 1
    32   17   18 ar
    33   18   47 1
    34   18   19 ar
    35   19   49 1
    36   19   20 ar
    37   20   22 1
    38   20   21 ar
    39   21   48 1
    40   22   23 1
    41   22   62 1
    42   23   28 ar
    43   23   24 ar
    44   24   25 ar
    45   24   50 1
    46   25   26 ar
    47   25   51 1
    48   26   27 ar
    49   26   29 1
    50   27   28 ar
    51   27   52 1
    52   28   53 1
    53   29   34 1
    54   29   30 1
    55   30   31 1
    56   30   54 1
    57   30   55 1
    58   31   32 1
    59   31   56 1
    60   31   57 1
    61   32   33 1
    62   33   34 1
    63   33   58 1
    64   33   59 1
    65   34   60 1
    66   34   61 1
@<TRIPOS>MOLECULE
CHEMBL575311__2
   61    65     0     0     0
SMALL
USER_CHARGES

@<TRIPOS>ATOM
      1 C1          5.2841   -3.6586   -2.9750 C.3       1 <0>        -0.1162
      2 C2          3.9878   -3.8373   -2.2275 C.ar      1 <0>        -0.0874
      3 C3          2.8317   -3.2176   -2.6751 C.ar      1 <0>        -0.1547
      4 C4          1.6571   -3.4084   -1.9563 C.ar      1 <0>         0.1118
      5 C5          1.6860   -4.2146   -0.8140 C.ar      1 <0>         0.1446
      6 N1          2.8169   -4.7874   -0.4237 N.ar      1 <0>        -0.4308
      7 C6          3.9404   -4.6260   -1.0915 C.ar      1 <0>         0.0996
      8 C7          5.1952   -5.3058   -0.6075 C.3       1 <0>        -0.1022
      9 C8          0.4441   -4.4300   -0.0335 C.ar      1 <0>         0.1688
     10 C9          0.3103   -5.5745    0.7505 C.ar      1 <0>        -0.1330
     11 C10        -0.8548   -5.7616    1.4739 C.ar      1 <0>        -0.0811
     12 C11        -1.8489   -4.7969    1.3896 C.ar      1 <0>        -0.1662
     13 C12        -1.6494   -3.6852    0.5919 C.ar      1 <0>         0.1008
     14 N2         -0.5286   -3.5290   -0.0827 N.ar      1 <0>        -0.4519
     15 O1          0.5002   -2.8208   -2.3568 O.3       1 <0>        -0.2133
     16 C13         0.5322   -2.0438   -3.4667 C.2       1 <0>         0.1658
     17 C14         0.7646   -2.6206   -4.7335 C.2       1 <0>        -0.2582
     18 C15         0.7962   -1.8463   -5.8363 C.2       1 <0>         0.1537
     19 N3          0.6057   -0.4996   -5.7517 N.pl3     1 <0>        -0.6288
     20 C16         0.3770    0.1001   -4.5364 C.2       1 <0>         0.4236
     21 C17         0.3324   -0.6830   -3.3697 C.2       1 <0>        -0.1573
     22 N4          0.1935    1.4132   -4.4652 N.2       1 <0>        -0.5627
     23 C18         0.1157    2.1556   -5.6103 C.ar      1 <0>         0.0614
     24 C19        -0.8360    1.8430   -6.5850 C.ar      1 <0>        -0.1286
     25 C20        -0.9112    2.5949   -7.7385 C.ar      1 <0>        -0.1751
     26 C21        -0.0423    3.6616   -7.9328 C.ar      1 <0>         0.2003
     27 C22         0.9056    3.9757   -6.9668 C.ar      1 <0>        -0.1748
     28 C23         0.9838    3.2330   -5.8074 C.ar      1 <0>        -0.0761
     29 N5         -0.1220    4.4223   -9.1062 N.pl3     1 <0>        -0.6352
     30 C24         0.8695    5.4695   -9.3989 C.3       1 <0>         0.0871
     31 C25         1.3997    5.2496  -10.8203 C.3       1 <0>         0.0460
     32 O2          0.2964    5.1495  -11.7239 O.3       1 <0>        -0.3790
     33 C26        -0.5685    4.0396  -11.4710 C.3       1 <0>         0.0460
     34 C27        -1.1962    4.1938  -10.0856 C.3       1 <0>         0.0866
     35 H1          5.3760   -4.4357   -3.7339 H         1 <0>         0.0795
     36 H2          5.2953   -2.6797   -3.4542 H         1 <0>         0.0711
     37 H3          6.1187   -3.7313   -2.2777 H         1 <0>         0.0784
     38 H4          2.8432   -2.6006   -3.5614 H         1 <0>         0.1466
     39 H5          5.7188   -4.6496    0.0877 H         1 <0>         0.0791
     40 H6          4.9331   -6.2354   -0.1024 H         1 <0>         0.0787
     41 H7          5.8413   -5.5239   -1.4579 H         1 <0>         0.0783
     42 H8          1.1043   -6.3054    0.7926 H         1 <0>         0.1416
     43 H9         -0.9874   -6.6387    2.0898 H         1 <0>         0.1374
     44 H10        -2.7699   -4.9136    1.9415 H         1 <0>         0.1365
     45 H11        -2.4213   -2.9329    0.5239 H         1 <0>         0.1592
     46 H12         0.9180   -3.6861   -4.8197 H         1 <0>         0.1477
     47 H13         0.9752   -2.2993   -6.8002 H         1 <0>         0.1680
     48 H14         0.1484   -0.2242   -2.4095 H         1 <0>         0.1609
     49 H15        -1.5112    1.0135   -6.4351 H         1 <0>         0.1172
     50 H16        -1.6463    2.3540   -8.4922 H         1 <0>         0.1222
     51 H17         1.5795    4.8052   -7.1222 H         1 <0>         0.1244
     52 H18         1.7180    3.4806   -5.0550 H         1 <0>         0.1254
     53 H19         0.3988    6.4502   -9.3302 H         1 <0>         0.0706
     54 H20         1.6919    5.4057   -8.6864 H         1 <0>         0.0920
     55 H21         2.0306    6.0907  -11.1078 H         1 <0>         0.1054
     56 H22         1.9820    4.3287  -10.8533 H         1 <0>         0.0550
     57 H23        -1.3536    4.0103  -12.2266 H         1 <0>         0.1052
     58 H24         0.0066    3.1144  -11.5064 H         1 <0>         0.0544
     59 H25        -1.7411    3.2857   -9.8276 H         1 <0>         0.0915
     60 H26        -1.8785    5.0439  -10.0873 H         1 <0>         0.0704
     61 H27         0.6320    0.0409   -6.5568 H         1 <0>         0.4197
@<TRIPOS>BOND
     1    1    2 1
     2    1   35 1
     3    1   36 1
     4    1   37 1
     5    2    7 ar
     6    2    3 ar
     7    3    4 ar
     8    3   38 1
     9    4    5 ar
    10    4   15 1
    11    5    6 ar
    12    5    9 1
    13    6    7 ar
    14    7    8 1
    15    8   39 1
    16    8   40 1
    17    8   41 1
    18    9   14 ar
    19    9   10 ar
    20   10   11 ar
    21   10   42 1
    22   11   12 ar
    23   11   43 1
    24   12   13 ar
    25   12   44 1
    26   13   14 ar
    27   13   45 1
    28   15   16 1
    29   16   17 1
    30   16   21 2
    31   17   46 1
    32   17   18 2
    33   18   47 1
    34   18   19 1
    35   19   61 1
    36   19   20 1
    37   20   22 2
    38   20   21 1
    39   21   48 1
    40   22   23 1
    41   23   28 ar
    42   23   24 ar
    43   24   25 ar
    44   24   49 1
    45   25   26 ar
    46   25   50 1
    47   26   27 ar
    48   26   29 1
    49   27   28 ar
    50   27   51 1
    51   28   52 1
    52   29   34 1
    53   29   30 1
    54   30   31 1
    55   30   53 1
    56   30   54 1
    57   31   32 1
    58   31   55 1
    59   31   56 1
    60   32   33 1
    61   33   34 1
    62   33   57 1
    63   33   58 1
    64   34   59 1
    65   34   60 1
@<TRIPOS>MOLECULE
CHEMBL575311__3
   61    65     0     0     0
SMALL
USER_CHARGES

@<TRIPOS>ATOM
      1 C1          3.8317   -4.7149   -2.5852 C.3       1 <0>        -0.1153
      2 C2          2.5005   -4.5099   -1.9093 C.ar      1 <0>        -0.0873
      3 C3          1.5917   -3.5956   -2.4182 C.ar      1 <0>        -0.1530
      4 C4          0.3751   -3.4370   -1.7644 C.ar      1 <0>         0.1118
      5 C5          0.1151   -4.2023   -0.6232 C.ar      1 <0>         0.1441
      6 N1          1.0159   -5.0654   -0.1729 N.ar      1 <0>        -0.4308
      7 C6          2.1727   -5.2370   -0.7786 C.ar      1 <0>         0.0997
      8 C7          3.1572   -6.2364   -0.2280 C.3       1 <0>        -0.1018
      9 C8         -1.1762   -4.0475    0.0885 C.ar      1 <0>         0.1687
     10 C9         -1.6689   -5.0965    0.8626 C.ar      1 <0>        -0.1328
     11 C10        -2.8755   -4.9369    1.5214 C.ar      1 <0>        -0.0809
     12 C11        -3.5508   -3.7322    1.3845 C.ar      1 <0>        -0.1659
     13 C12        -3.0038   -2.7334    0.6002 C.ar      1 <0>         0.1003
     14 N2         -1.8508   -2.9093   -0.0123 N.ar      1 <0>        -0.4517
     15 O1         -0.5461   -2.5525   -2.2264 O.3       1 <0>        -0.2154
     16 C13        -0.2882   -1.9178   -3.3958 C.2       1 <0>         0.1737
     17 C14        -0.2493   -2.6424   -4.6061 C.2       1 <0>        -0.2654
     18 C15         0.0073   -2.0096   -5.7680 C.2       1 <0>         0.1655
     19 N3          0.2331   -0.6660   -5.7983 N.pl3     1 <0>        -0.5893
     20 C16         0.2043    0.0749   -4.6412 C.2       1 <0>         0.4233
     21 C17        -0.0670   -0.5571   -3.4150 C.2       1 <0>        -0.2171
     22 N4          0.4265    1.3833   -4.6819 N.2       1 <0>        -0.5838
     23 C18         0.5278    2.0958   -3.5197 C.ar      1 <0>         0.0832
     24 C19         1.5270    1.7864   -2.5927 C.ar      1 <0>        -0.1070
     25 C20         1.6257    2.5082   -1.4218 C.ar      1 <0>        -0.1774
     26 C21         0.7336    3.5413   -1.1628 C.ar      1 <0>         0.2008
     27 C22        -0.2616    3.8521   -2.0813 C.ar      1 <0>        -0.1778
     28 C23        -0.3638    3.1397   -3.2576 C.ar      1 <0>        -0.0792
     29 N5          0.8373    4.2714    0.0280 N.pl3     1 <0>        -0.6354
     30 C24        -0.1284    5.3334    0.3521 C.3       1 <0>         0.0879
     31 C25        -0.6552    5.0912    1.7711 C.3       1 <0>         0.0455
     32 O2          0.4508    4.9444    2.6651 O.3       1 <0>        -0.3796
     33 C26         1.2887    3.8217    2.3801 C.3       1 <0>         0.0456
     34 C27         1.9117    3.9951    0.9948 C.3       1 <0>         0.0876
     35 H1          3.7665   -5.5632   -3.2665 H         1 <0>         0.0802
     36 H2          4.0966   -3.8183   -3.1456 H         1 <0>         0.0703
     37 H3          4.5950   -4.9115   -1.8323 H         1 <0>         0.0782
     38 H4          1.8234   -3.0195   -3.3018 H         1 <0>         0.1449
     39 H5          3.8076   -5.7449    0.4954 H         1 <0>         0.0790
     40 H6          2.6170   -7.0470    0.2610 H         1 <0>         0.0787
     41 H7          3.7589   -6.6400   -1.0423 H         1 <0>         0.0783
     42 H8         -1.1170   -6.0210    0.9468 H         1 <0>         0.1418
     43 H9         -3.2826   -5.7322    2.1282 H         1 <0>         0.1377
     44 H10        -4.4948   -3.5765    1.8855 H         1 <0>         0.1366
     45 H11        -3.5270   -1.7949    0.4914 H         1 <0>         0.1580
     46 H12        -0.4255   -3.7080   -4.6012 H         1 <0>         0.1480
     47 H13         0.0348   -2.5751   -6.6877 H         1 <0>         0.1760
     48 H14        -0.0974    0.0151   -2.4995 H         1 <0>         0.1550
     49 H15         2.2204    0.9830   -2.7930 H         1 <0>         0.1150
     50 H16         2.3975    2.2698   -0.7049 H         1 <0>         0.1202
     51 H17        -0.9534    4.6555   -1.8756 H         1 <0>         0.1229
     52 H18        -1.1349    3.3848   -3.9731 H         1 <0>         0.1221
     53 H19         0.3641    6.3046    0.3040 H         1 <0>         0.0694
     54 H20        -0.9562    5.3055   -0.3565 H         1 <0>         0.0920
     55 H21        -1.2651    5.9392    2.0827 H         1 <0>         0.1045
     56 H22        -1.2581    4.1832    1.7857 H         1 <0>         0.0555
     57 H23         2.0773    3.7563    3.1297 H         1 <0>         0.1043
     58 H24         0.6929    2.9091    2.3968 H         1 <0>         0.0550
     59 H25         2.4343    3.0814    0.7116 H         1 <0>         0.0912
     60 H26         2.6131    4.8292    1.0126 H         1 <0>         0.0691
     61 H27         0.4161   -0.2285   -6.6445 H         1 <0>         0.4256
@<TRIPOS>BOND
     1    1    2 1
     2    1   35 1
     3    1   36 1
     4    1   37 1
     5    2    7 ar
     6    2    3 ar
     7    3    4 ar
     8    3   38 1
     9    4    5 ar
    10    4   15 1
    11    5    6 ar
    12    5    9 1
    13    6    7 ar
    14    7    8 1
    15    8   39 1
    16    8   40 1
    17    8   41 1
    18    9   14 ar
    19    9   10 ar
    20   10   11 ar
    21   10   42 1
    22   11   12 ar
    23   11   43 1
    24   12   13 ar
    25   12   44 1
    26   13   14 ar
    27   13   45 1
    28   15   16 1
    29   16   17 1
    30   16   21 2
    31   17   46 1
    32   17   18 2
    33   18   47 1
    34   18   19 1
    35   19   61 1
    36   19   20 1
    37   20   22 2
    38   20   21 1
    39   21   48 1
    40   22   23 1
    41   23   28 ar
    42   23   24 ar
    43   24   25 ar
    44   24   49 1
    45   25   26 ar
    46   25   50 1
    47   26   27 ar
    48   26   29 1
    49   27   28 ar
    50   27   51 1
    51   28   52 1
    52   29   34 1
    53   29   30 1
    54   30   31 1
    55   30   53 1
    56   30   54 1
    57   31   32 1
    58   31   55 1
    59   31   56 1
    60   32   33 1
    61   33   34 1
    62   33   57 1
    63   33   58 1
    64   34   59 1
    65   34   60 1
@<TRIPOS>MOLECULE
CHEMBL226734
   51    55     0     0     0
SMALL
USER_CHARGES

@<TRIPOS>ATOM
      1 C1         -0.0184    1.5028    0.0103 C.3       1 <0>        -0.1123
      2 C2          0.0021   -0.0041    0.0020 C.ar      1 <0>         0.1495
      3 C3          0.0055   -0.6788   -1.2045 C.ar      1 <0>        -0.1437
      4 C4          0.0244   -2.0678   -1.2102 C.ar      1 <0>        -0.0602
      5 C5          0.0392   -2.7335    0.0011 C.ar      1 <0>        -0.1563
      6 C6          0.0347   -1.9894    1.1844 C.ar      1 <0>         0.1649
      7 N1          0.0218   -0.6596    1.1448 N.ar      1 <0>        -0.4506
      8 C7          0.0498   -2.6824    2.4845 C.2       1 <0>         0.1129
      9 C8          0.5109   -2.1799    3.6867 C.2       1 <0>         0.1376
     10 N2          0.3423   -3.1350    4.6204 N.pl3     1 <0>        -0.5165
     11 C9         -0.1949   -4.1988    4.0713 C.cat     1 <0>         0.6013
     12 N3         -0.4006   -3.9650    2.7473 N.pl3     1 <0>        -0.5431
     13 H1         -0.7885   -4.5818    2.1070 H         1 <0>         0.4595
     14 N4         -0.5073   -5.3694    4.7344 N.pl3     1 <0>        -0.6814
     15 C10        -1.1063   -6.4884    4.0027 C.3       1 <0>         0.1539
     16 C11        -1.3474   -7.6360    4.9491 C.ar      1 <0>        -0.1347
     17 C12        -0.3616   -8.5869    5.1464 C.ar      1 <0>        -0.0637
     18 C13        -0.5745   -9.6437    6.0135 C.ar      1 <0>        -0.1148
     19 C14        -1.7727   -9.7559    6.6881 C.ar      1 <0>        -0.0450
     20 C15        -2.7715   -8.7999    6.4942 C.ar      1 <0>        -0.0168
     21 C16        -2.5480   -7.7331    5.6211 C.ar      1 <0>        -0.0465
     22 C17        -4.0176   -8.9100    7.1911 C.1       1 <0>         0.2345
     23 N5         -5.0062   -8.9974    7.7439 N.1       1 <0>        -0.3868
     24 C18         1.0871   -0.8334    3.9079 C.ar      1 <0>        -0.0456
     25 C19         2.0233   -0.3180    3.0115 C.ar      1 <0>        -0.0345
     26 C20         2.5591    0.9362    3.2186 C.ar      1 <0>        -0.1004
     27 C21         2.1696    1.6887    4.3167 C.ar      1 <0>         0.0715
     28 C22         1.2341    1.1790    5.2158 C.ar      1 <0>         0.0362
     29 C23         0.6905   -0.0758    5.0097 C.ar      1 <0>        -0.0768
     30 O1          1.0238    2.1043    6.1975 O.3       1 <0>        -0.3030
     31 C24         2.1389    3.0114    6.1159 C.3       1 <0>         0.2118
     32 O2          2.5439    2.9328    4.7365 O.3       1 <0>        -0.2997
     33 H2          1.0042    1.8801    0.0026 H         1 <0>         0.0872
     34 H3         -0.5455    1.8639   -0.8728 H         1 <0>         0.0840
     35 H4         -0.5286    1.8543    0.9071 H         1 <0>         0.0824
     36 H5         -0.0067   -0.1306   -2.1349 H         1 <0>         0.1485
     37 H6          0.0270   -2.6157   -2.1410 H         1 <0>         0.1489
     38 H7          0.0536   -3.8130    0.0328 H         1 <0>         0.1346
     39 H8         -0.3302   -5.4507    5.6846 H         1 <0>         0.4388
     40 H9         -2.0538   -6.1717    3.5667 H         1 <0>         0.0969
     41 H10        -0.4300   -6.8074    3.2096 H         1 <0>         0.0989
     42 H11         0.5782   -8.5038    4.6208 H         1 <0>         0.1369
     43 H12         0.1989  -10.3827    6.1623 H         1 <0>         0.1449
     44 H13        -1.9378  -10.5816    7.3645 H         1 <0>         0.1432
     45 H14        -3.3150   -6.9880    5.4694 H         1 <0>         0.1382
     46 H15         2.3290   -0.9011    2.1553 H         1 <0>         0.1368
     47 H16         3.2844    1.3333    2.5238 H         1 <0>         0.1469
     48 H17        -0.0375   -0.4703    5.7031 H         1 <0>         0.1365
     49 H18         1.8269    4.0253    6.3662 H         1 <0>         0.1412
     50 H19         2.9465    2.6854    6.7713 H         1 <0>         0.0935
     51 H20         0.5815   -3.0498    5.5566 H         1 <0>         0.4604
@<TRIPOS>BOND
     1    1    2 1
     2    1   33 1
     3    1   34 1
     4    1   35 1
     5    2    7 ar
     6    2    3 ar
     7    3    4 ar
     8    3   36 1
     9    4    5 ar
    10    4   37 1
    11    5    6 ar
    12    5   38 1
    13    6    7 ar
    14    6    8 1
    15    8   12 1
    16    8    9 2
    17    9   10 1
    18    9   24 1
    19   10   11 2
    20   10   51 1
    21   11   12 1
    22   11   14 1
    23   12   13 1
    24   14   15 1
    25   14   39 1
    26   15   16 1
    27   15   40 1
    28   15   41 1
    29   16   21 ar
    30   16   17 ar
    31   17   18 ar
    32   17   42 1
    33   18   19 ar
    34   18   43 1
    35   19   20 ar
    36   19   44 1
    37   20   21 ar
    38   20   22 1
    39   21   45 1
    40   22   23 3
    41   24   29 ar
    42   24   25 ar
    43   25   26 ar
    44   25   46 1
    45   26   27 ar
    46   26   47 1
    47   27   32 1
    48   27   28 ar
    49   28   29 ar
    50   28   30 1
    51   29   48 1
    52   30   31 1
    53   31   32 1
    54   31   49 1
    55   31   50 1
@<TRIPOS>MOLECULE
CHEMBL226734__1
   50    54     0     0     0
SMALL
USER_CHARGES

@<TRIPOS>ATOM
      1 C1         -0.0184    1.5028    0.0103 C.3       1 <0>        -0.1068
      2 C2          0.0021   -0.0041    0.0020 C.ar      1 <0>         0.1428
      3 C3          0.0055   -0.6788   -1.2045 C.ar      1 <0>        -0.1779
      4 C4          0.0244   -2.0678   -1.2102 C.ar      1 <0>        -0.0627
      5 C5          0.0392   -2.7335    0.0011 C.ar      1 <0>        -0.1808
      6 C6          0.0347   -1.9894    1.1844 C.ar      1 <0>         0.2143
      7 N1          0.0218   -0.6596    1.1448 N.ar      1 <0>        -0.4622
      8 C7          0.0498   -2.6824    2.4845 C.2       1 <0>        -0.0059
      9 C8          0.5109   -2.1799    3.6867 C.2       1 <0>         0.1368
     10 N2          0.3423   -3.1350    4.6204 N.2       1 <0>        -0.5228
     11 C9         -0.1949   -4.1988    4.0713 C.2       1 <0>         0.5100
     12 N3         -0.4006   -3.9650    2.7473 N.pl3     1 <0>        -0.5835
     13 H1         -0.7885   -4.5818    2.1070 H         1 <0>         0.4184
     14 N4         -0.5073   -5.3694    4.7344 N.pl3     1 <0>        -0.7079
     15 C10        -1.1058   -6.4886    4.0025 C.3       1 <0>         0.1671
     16 C11        -1.3470   -7.6362    4.9491 C.ar      1 <0>        -0.1119
     17 C12        -0.3610   -8.5868    5.1468 C.ar      1 <0>        -0.0657
     18 C13        -0.5741   -9.6436    6.0138 C.ar      1 <0>        -0.1189
     19 C14        -1.7725   -9.7560    6.6881 C.ar      1 <0>        -0.0575
     20 C15        -2.7714   -8.8002    6.4937 C.ar      1 <0>        -0.0263
     21 C16        -2.5478   -7.7334    5.6206 C.ar      1 <0>        -0.0483
     22 C17        -4.0178   -8.9105    7.1901 C.1       1 <0>         0.2468
     23 N5         -5.0065   -8.9980    7.7426 N.1       1 <0>        -0.4051
     24 C18         1.0871   -0.8334    3.9079 C.ar      1 <0>         0.0085
     25 C19         1.8584   -0.2314    2.9137 C.ar      1 <0>        -0.0505
     26 C20         2.3943    1.0227    3.1210 C.ar      1 <0>        -0.1056
     27 C21         2.1687    1.6892    4.3163 C.ar      1 <0>         0.0375
     28 C22         1.3984    1.0927    5.3134 C.ar      1 <0>         0.0228
     29 C23         0.8549   -0.1624    5.1083 C.ar      1 <0>        -0.0678
     30 O1          1.3277    1.9446    6.3779 O.3       1 <0>        -0.3094
     31 C24         2.3968    2.8895    6.1856 C.3       1 <0>         0.2134
     32 O2          2.5792    2.9142    4.7577 O.3       1 <0>        -0.3102
     33 H2          1.0042    1.8801    0.0026 H         1 <0>         0.0811
     34 H3         -0.5455    1.8639   -0.8728 H         1 <0>         0.0759
     35 H4         -0.5286    1.8543    0.9071 H         1 <0>         0.0796
     36 H5         -0.0067   -0.1306   -2.1349 H         1 <0>         0.1361
     37 H6          0.0270   -2.6157   -2.1410 H         1 <0>         0.1364
     38 H7          0.0536   -3.8130    0.0328 H         1 <0>         0.1270
     39 H8         -0.3305   -5.4506    5.6847 H         1 <0>         0.4256
     40 H9         -2.0532   -6.1722    3.5662 H         1 <0>         0.0727
     41 H10        -0.4292   -6.8075    3.2097 H         1 <0>         0.0746
     42 H11         0.5789   -8.5036    4.6215 H         1 <0>         0.1347
     43 H12         0.1994  -10.3824    6.1630 H         1 <0>         0.1392
     44 H13        -1.9376  -10.5816    7.3644 H         1 <0>         0.1369
     45 H14        -3.3149   -6.9885    5.4685 H         1 <0>         0.1360
     46 H15         2.0362   -0.7473    1.9817 H         1 <0>         0.1298
     47 H16         2.9918    1.4869    2.3503 H         1 <0>         0.1331
     48 H17         0.2545   -0.6240    5.8783 H         1 <0>         0.1374
     49 H18         2.1077    3.8746    6.5518 H         1 <0>         0.1303
     50 H19         3.3048    2.5467    6.6818 H         1 <0>         0.0831
@<TRIPOS>BOND
     1    1    2 1
     2    1   33 1
     3    1   34 1
     4    1   35 1
     5    2    7 ar
     6    2    3 ar
     7    3    4 ar
     8    3   36 1
     9    4    5 ar
    10    4   37 1
    11    5    6 ar
    12    5   38 1
    13    6    7 ar
    14    6    8 1
    15    8   12 1
    16    8    9 2
    17    9   10 1
    18    9   24 1
    19   10   11 2
    20   11   12 1
    21   11   14 1
    22   12   13 1
    23   14   15 1
    24   14   39 1
    25   15   16 1
    26   15   40 1
    27   15   41 1
    28   16   21 ar
    29   16   17 ar
    30   17   18 ar
    31   17   42 1
    32   18   19 ar
    33   18   43 1
    34   19   20 ar
    35   19   44 1
    36   20   21 ar
    37   20   22 1
    38   21   45 1
    39   22   23 3
    40   24   29 ar
    41   24   25 ar
    42   25   26 ar
    43   25   46 1
    44   26   27 ar
    45   26   47 1
    46   27   32 1
    47   27   28 ar
    48   28   29 ar
    49   28   30 1
    50   29   48 1
    51   30   31 1
    52   31   32 1
    53   31   49 1
    54   31   50 1
@<TRIPOS>MOLECULE
CHEMBL226734__2
   50    54     0     0     0
SMALL
USER_CHARGES

@<TRIPOS>ATOM
      1 C1         -0.0184    1.5028    0.0103 C.3       1 <0>        -0.1035
      2 C2          0.0021   -0.0041    0.0020 C.ar      1 <0>         0.1321
      3 C3          0.0056   -0.6791   -1.2044 C.ar      1 <0>        -0.1733
      4 C4          0.0249   -2.0674   -1.2087 C.ar      1 <0>        -0.0736
      5 C5          0.0401   -2.7318    0.0044 C.ar      1 <0>        -0.1472
      6 C6          0.0355   -1.9877    1.1847 C.ar      1 <0>         0.2095
      7 N1          0.0218   -0.6599    1.1447 N.ar      1 <0>        -0.4668
      8 C7          0.0510   -2.6826    2.4906 C.2       1 <0>         0.0929
      9 C8          0.5158   -2.1652    3.6844 C.2       1 <0>         0.0392
     10 N2          0.3374   -3.1533    4.6318 N.pl3     1 <0>        -0.5858
     11 C9         -0.2202   -4.2228    3.9992 C.2       1 <0>         0.5000
     12 N3         -0.3916   -3.9342    2.7323 N.2       1 <0>        -0.5155
     13 N4         -0.5574   -5.4218    4.5999 N.pl3     1 <0>        -0.7100
     14 C10        -0.3186   -5.6162    6.0322 C.3       1 <0>         0.1679
     15 C11        -0.7705   -6.9966    6.4340 C.ar      1 <0>        -0.1111
     16 C12        -2.0733   -7.2018    6.8531 C.ar      1 <0>        -0.0658
     17 C13        -2.4965   -8.4656    7.2237 C.ar      1 <0>        -0.1189
     18 C14        -1.6210   -9.5309    7.1773 C.ar      1 <0>        -0.0579
     19 C15        -0.3054   -9.3312    6.7550 C.ar      1 <0>        -0.0268
     20 C16         0.1138   -8.0536    6.3777 C.ar      1 <0>        -0.0484
     21 C17         0.6088  -10.4322    6.7043 C.1       1 <0>         0.2472
     22 N5          1.3340  -11.3057    6.6641 N.1       1 <0>        -0.4058
     23 C18         1.0896   -0.8231    3.9031 C.ar      1 <0>         0.0125
     24 C19         2.0268   -0.3071    3.0049 C.ar      1 <0>        -0.0532
     25 C20         2.5611    0.9474    3.2111 C.ar      1 <0>        -0.0967
     26 C21         2.1716    1.7006    4.3091 C.ar      1 <0>         0.0370
     27 C22         1.2366    1.1917    5.2097 C.ar      1 <0>         0.0318
     28 C23         0.6927   -0.0629    5.0057 C.ar      1 <0>        -0.0923
     29 O1          1.0273    2.1179    6.1908 O.3       1 <0>        -0.3095
     30 C24         2.1424    3.0248    6.1074 C.3       1 <0>         0.2134
     31 O2          2.5461    2.9453    4.7277 O.3       1 <0>        -0.3081
     32 H1          1.0042    1.8801    0.0026 H         1 <0>         0.0777
     33 H2         -0.5455    1.8639   -0.8728 H         1 <0>         0.0741
     34 H3         -0.5286    1.8543    0.9071 H         1 <0>         0.0761
     35 H4         -0.0069   -0.1315   -2.1352 H         1 <0>         0.1335
     36 H5          0.0276   -2.6164   -2.1388 H         1 <0>         0.1355
     37 H6          0.0549   -3.8112    0.0375 H         1 <0>         0.1394
     38 H7         -0.9520   -6.1342    4.0729 H         1 <0>         0.4244
     39 H8          0.7455   -5.5070    6.2412 H         1 <0>         0.0725
     40 H9         -0.8784   -4.8715    6.5981 H         1 <0>         0.0738
     41 H10        -2.7627   -6.3713    6.8913 H         1 <0>         0.1346
     42 H11        -3.5145   -8.6186    7.5505 H         1 <0>         0.1391
     43 H12        -1.9526  -10.5170    7.4672 H         1 <0>         0.1367
     44 H13         1.1291   -7.8928    6.0466 H         1 <0>         0.1360
     45 H14         2.3332   -0.8906    2.1493 H         1 <0>         0.1318
     46 H15         3.2855    1.3448    2.5157 H         1 <0>         0.1364
     47 H16        -0.0349   -0.4563    5.7001 H         1 <0>         0.1295
     48 H17         1.8307    4.0389    6.3573 H         1 <0>         0.1320
     49 H18         2.9506    2.6992    6.7623 H         1 <0>         0.0841
     50 H19         0.5666   -3.0966    5.5726 H         1 <0>         0.4194
@<TRIPOS>BOND
     1    1    2 1
     2    1   32 1
     3    1   33 1
     4    1   34 1
     5    2    7 ar
     6    2    3 ar
     7    3    4 ar
     8    3   35 1
     9    4    5 ar
    10    4   36 1
    11    5    6 ar
    12    5   37 1
    13    6    7 ar
    14    6    8 1
    15    8   12 1
    16    8    9 2
    17    9   10 1
    18    9   23 1
    19   10   11 1
    20   10   50 1
    21   11   12 2
    22   11   13 1
    23   13   14 1
    24   13   38 1
    25   14   15 1
    26   14   39 1
    27   14   40 1
    28   15   20 ar
    29   15   16 ar
    30   16   17 ar
    31   16   41 1
    32   17   18 ar
    33   17   42 1
    34   18   19 ar
    35   18   43 1
    36   19   20 ar
    37   19   21 1
    38   20   44 1
    39   21   22 3
    40   23   28 ar
    41   23   24 ar
    42   24   25 ar
    43   24   45 1
    44   25   26 ar
    45   25   46 1
    46   26   31 1
    47   26   27 ar
    48   27   28 ar
    49   27   29 1
    50   28   47 1
    51   29   30 1
    52   30   31 1
    53   30   48 1
    54   30   49 1
@<TRIPOS>MOLECULE
CHEMBL445934
   51    55     0     0     0
SMALL
USER_CHARGES

@<TRIPOS>ATOM
      1 C1         -0.0184    1.5028    0.0103 C.3       1 <0>        -0.1123
      2 C2          0.0021   -0.0041    0.0020 C.ar      1 <0>         0.1496
      3 C3          0.0055   -0.6788   -1.2045 C.ar      1 <0>        -0.1436
      4 C4          0.0244   -2.0678   -1.2102 C.ar      1 <0>        -0.0602
      5 C5          0.0392   -2.7335    0.0011 C.ar      1 <0>        -0.1563
      6 C6          0.0347   -1.9894    1.1844 C.ar      1 <0>         0.1649
      7 N1          0.0218   -0.6596    1.1448 N.ar      1 <0>        -0.4506
      8 C7          0.0498   -2.6824    2.4845 C.2       1 <0>         0.1130
      9 C8          0.5109   -2.1799    3.6867 C.2       1 <0>         0.1377
     10 N2          0.3423   -3.1350    4.6204 N.pl3     1 <0>        -0.5164
     11 C9         -0.1949   -4.1988    4.0713 C.cat     1 <0>         0.6014
     12 N3         -0.4006   -3.9650    2.7473 N.pl3     1 <0>        -0.5430
     13 H1         -0.7885   -4.5818    2.1070 H         1 <0>         0.4595
     14 N4         -0.5073   -5.3694    4.7344 N.pl3     1 <0>        -0.6807
     15 C10        -1.1063   -6.4884    4.0027 C.3       1 <0>         0.1505
     16 C11        -1.3474   -7.6360    4.9491 C.ar      1 <0>        -0.1102
     17 C12        -0.3606   -8.5859    5.1452 C.ar      1 <0>        -0.0899
     18 C13        -0.5746   -9.6390    6.0101 C.ar      1 <0>        -0.0717
     19 C14        -1.7903   -9.7448    6.6888 C.ar      1 <0>         0.0099
     20 C15        -2.7816   -8.7824    6.4866 C.ar      1 <0>        -0.0716
     21 C16        -2.5524   -7.7318    5.6224 C.ar      1 <0>        -0.0899
     22 C17        -2.0196  -10.8355    7.5879 C.1       1 <0>         0.2316
     23 N5         -2.2015  -11.7009    8.3010 N.1       1 <0>        -0.3822
     24 C18         1.0871   -0.8334    3.9079 C.ar      1 <0>        -0.0457
     25 C19         2.0233   -0.3180    3.0115 C.ar      1 <0>        -0.0345
     26 C20         2.5591    0.9362    3.2186 C.ar      1 <0>        -0.1004
     27 C21         2.1696    1.6887    4.3167 C.ar      1 <0>         0.0715
     28 C22         1.2341    1.1790    5.2158 C.ar      1 <0>         0.0361
     29 C23         0.6905   -0.0758    5.0097 C.ar      1 <0>        -0.0767
     30 O1          1.0238    2.1043    6.1975 O.3       1 <0>        -0.3030
     31 C24         2.1389    3.0114    6.1159 C.3       1 <0>         0.2118
     32 O2          2.5439    2.9328    4.7365 O.3       1 <0>        -0.2997
     33 H2          1.0042    1.8801    0.0026 H         1 <0>         0.0872
     34 H3         -0.5455    1.8639   -0.8728 H         1 <0>         0.0840
     35 H4         -0.5286    1.8543    0.9071 H         1 <0>         0.0824
     36 H5         -0.0067   -0.1306   -2.1349 H         1 <0>         0.1485
     37 H6          0.0270   -2.6157   -2.1410 H         1 <0>         0.1489
     38 H7          0.0536   -3.8130    0.0328 H         1 <0>         0.1346
     39 H8         -0.3302   -5.4507    5.6846 H         1 <0>         0.4390
     40 H9         -2.0538   -6.1717    3.5667 H         1 <0>         0.0978
     41 H10        -0.4300   -6.8074    3.2096 H         1 <0>         0.0981
     42 H11         0.5792   -8.5028    4.6196 H         1 <0>         0.1396
     43 H12         0.1962  -10.3801    6.1617 H         1 <0>         0.1431
     44 H13        -3.7241   -8.8583    7.0083 H         1 <0>         0.1431
     45 H14        -3.3166   -6.9845    5.4681 H         1 <0>         0.1395
     46 H15         2.3290   -0.9011    2.1553 H         1 <0>         0.1368
     47 H16         3.2844    1.3333    2.5238 H         1 <0>         0.1469
     48 H17        -0.0375   -0.4703    5.7031 H         1 <0>         0.1366
     49 H18         1.8269    4.0253    6.3662 H         1 <0>         0.1412
     50 H19         2.9465    2.6854    6.7713 H         1 <0>         0.0935
     51 H20         0.5815   -3.0498    5.5566 H         1 <0>         0.4605
@<TRIPOS>BOND
     1    1    2 1
     2    1   33 1
     3    1   34 1
     4    1   35 1
     5    2    7 ar
     6    2    3 ar
     7    3    4 ar
     8    3   36 1
     9    4    5 ar
    10    4   37 1
    11    5    6 ar
    12    5   38 1
    13    6    7 ar
    14    6    8 1
    15    8   12 1
    16    8    9 2
    17    9   10 1
    18    9   24 1
    19   10   11 2
    20   10   51 1
    21   11   12 1
    22   11   14 1
    23   12   13 1
    24   14   15 1
    25   14   39 1
    26   15   16 1
    27   15   40 1
    28   15   41 1
    29   16   21 ar
    30   16   17 ar
    31   17   18 ar
    32   17   42 1
    33   18   19 ar
    34   18   43 1
    35   19   20 ar
    36   19   22 1
    37   20   21 ar
    38   20   44 1
    39   21   45 1
    40   22   23 3
    41   24   29 ar
    42   24   25 ar
    43   25   26 ar
    44   25   46 1
    45   26   27 ar
    46   26   47 1
    47   27   32 1
    48   27   28 ar
    49   28   29 ar
    50   28   30 1
    51   29   48 1
    52   30   31 1
    53   31   32 1
    54   31   49 1
    55   31   50 1
@<TRIPOS>MOLECULE
CHEMBL445934__1
   50    54     0     0     0
SMALL
USER_CHARGES

@<TRIPOS>ATOM
      1 C1         -0.0184    1.5028    0.0103 C.3       1 <0>        -0.1068
      2 C2          0.0021   -0.0041    0.0020 C.ar      1 <0>         0.1428
      3 C3          0.0055   -0.6788   -1.2045 C.ar      1 <0>        -0.1779
      4 C4          0.0244   -2.0678   -1.2102 C.ar      1 <0>        -0.0627
      5 C5          0.0392   -2.7335    0.0011 C.ar      1 <0>        -0.1809
      6 C6          0.0347   -1.9894    1.1844 C.ar      1 <0>         0.2142
      7 N1          0.0218   -0.6596    1.1448 N.ar      1 <0>        -0.4622
      8 C7          0.0498   -2.6824    2.4845 C.2       1 <0>        -0.0057
      9 C8          0.5109   -2.1799    3.6867 C.2       1 <0>         0.1369
     10 N2          0.3423   -3.1350    4.6204 N.2       1 <0>        -0.5226
     11 C9         -0.1949   -4.1988    4.0713 C.2       1 <0>         0.5100
     12 N3         -0.4006   -3.9650    2.7473 N.pl3     1 <0>        -0.5835
     13 H1         -0.7885   -4.5818    2.1070 H         1 <0>         0.4184
     14 N4         -0.5073   -5.3694    4.7344 N.pl3     1 <0>        -0.7072
     15 C10        -1.1058   -6.4886    4.0025 C.3       1 <0>         0.1632
     16 C11        -1.3470   -7.6362    4.9491 C.ar      1 <0>        -0.0832
     17 C12        -0.3601   -8.5858    5.1456 C.ar      1 <0>        -0.0955
     18 C13        -0.5742   -9.6389    6.0105 C.ar      1 <0>        -0.0716
     19 C14        -1.7901   -9.7448    6.6888 C.ar      1 <0>        -0.0128
     20 C15        -2.7815   -8.7827    6.4861 C.ar      1 <0>        -0.0715
     21 C16        -2.5522   -7.7322    5.6219 C.ar      1 <0>        -0.0955
     22 C17        -2.0195  -10.8356    7.5878 C.1       1 <0>         0.2458
     23 N5         -2.2015  -11.7009    8.3010 N.1       1 <0>        -0.4042
     24 C18         1.0871   -0.8334    3.9079 C.ar      1 <0>         0.0084
     25 C19         1.8584   -0.2314    2.9137 C.ar      1 <0>        -0.0505
     26 C20         2.3943    1.0227    3.1210 C.ar      1 <0>        -0.1056
     27 C21         2.1687    1.6892    4.3163 C.ar      1 <0>         0.0375
     28 C22         1.3984    1.0927    5.3134 C.ar      1 <0>         0.0228
     29 C23         0.8549   -0.1624    5.1083 C.ar      1 <0>        -0.0677
     30 O1          1.3277    1.9446    6.3779 O.3       1 <0>        -0.3094
     31 C24         2.3968    2.8895    6.1856 C.3       1 <0>         0.2134
     32 O2          2.5792    2.9142    4.7577 O.3       1 <0>        -0.3102
     33 H2          1.0042    1.8801    0.0026 H         1 <0>         0.0811
     34 H3         -0.5455    1.8639   -0.8728 H         1 <0>         0.0759
     35 H4         -0.5286    1.8543    0.9071 H         1 <0>         0.0796
     36 H5         -0.0067   -0.1306   -2.1349 H         1 <0>         0.1361
     37 H6          0.0270   -2.6157   -2.1410 H         1 <0>         0.1364
     38 H7          0.0536   -3.8130    0.0328 H         1 <0>         0.1270
     39 H8         -0.3305   -5.4506    5.6847 H         1 <0>         0.4258
     40 H9         -2.0532   -6.1722    3.5662 H         1 <0>         0.0738
     41 H10        -0.4292   -6.8075    3.2097 H         1 <0>         0.0740
     42 H11         0.5799   -8.5026    4.6203 H         1 <0>         0.1376
     43 H12         0.1967  -10.3798    6.1625 H         1 <0>         0.1376
     44 H13        -3.7242   -8.8587    7.0075 H         1 <0>         0.1376
     45 H14        -3.3166   -6.9850    5.4673 H         1 <0>         0.1375
     46 H15         2.0362   -0.7473    1.9817 H         1 <0>         0.1298
     47 H16         2.9918    1.4869    2.3503 H         1 <0>         0.1331
     48 H17         0.2545   -0.6240    5.8783 H         1 <0>         0.1375
     49 H18         2.1077    3.8746    6.5518 H         1 <0>         0.1303
     50 H19         3.3048    2.5467    6.6818 H         1 <0>         0.0832
@<TRIPOS>BOND
     1    1    2 1
     2    1   33 1
     3    1   34 1
     4    1   35 1
     5    2    7 ar
     6    2    3 ar
     7    3    4 ar
     8    3   36 1
     9    4    5 ar
    10    4   37 1
    11    5    6 ar
    12    5   38 1
    13    6    7 ar
    14    6    8 1
    15    8   12 1
    16    8    9 2
    17    9   10 1
    18    9   24 1
    19   10   11 2
    20   11   12 1
    21   11   14 1
    22   12   13 1
    23   14   15 1
    24   14   39 1
    25   15   16 1
    26   15   40 1
    27   15   41 1
    28   16   21 ar
    29   16   17 ar
    30   17   18 ar
    31   17   42 1
    32   18   19 ar
    33   18   43 1
    34   19   20 ar
    35   19   22 1
    36   20   21 ar
    37   20   44 1
    38   21   45 1
    39   22   23 3
    40   24   29 ar
    41   24   25 ar
    42   25   26 ar
    43   25   46 1
    44   26   27 ar
    45   26   47 1
    46   27   32 1
    47   27   28 ar
    48   28   29 ar
    49   28   30 1
    50   29   48 1
    51   30   31 1
    52   31   32 1
    53   31   49 1
    54   31   50 1
@<TRIPOS>MOLECULE
CHEMBL445934__2
   50    54     0     0     0
SMALL
USER_CHARGES

@<TRIPOS>ATOM
      1 C1         -0.0184    1.5028    0.0103 C.3       1 <0>        -0.1036
      2 C2          0.0021   -0.0041    0.0020 C.ar      1 <0>         0.1322
      3 C3          0.0056   -0.6791   -1.2044 C.ar      1 <0>        -0.1733
      4 C4          0.0249   -2.0674   -1.2087 C.ar      1 <0>        -0.0736
      5 C5          0.0401   -2.7318    0.0044 C.ar      1 <0>        -0.1472
      6 C6          0.0355   -1.9877    1.1847 C.ar      1 <0>         0.2095
      7 N1          0.0218   -0.6599    1.1447 N.ar      1 <0>        -0.4669
      8 C7          0.0510   -2.6826    2.4906 C.2       1 <0>         0.0929
      9 C8          0.5158   -2.1652    3.6844 C.2       1 <0>         0.0394
     10 N2          0.3374   -3.1533    4.6318 N.pl3     1 <0>        -0.5858
     11 C9         -0.2202   -4.2228    3.9992 C.2       1 <0>         0.5000
     12 N3         -0.3916   -3.9342    2.7323 N.2       1 <0>        -0.5153
     13 N4         -0.5574   -5.4218    4.5999 N.pl3     1 <0>        -0.7093
     14 C10        -0.3186   -5.6162    6.0322 C.3       1 <0>         0.1640
     15 C11        -0.7705   -6.9966    6.4340 C.ar      1 <0>        -0.0823
     16 C12        -2.0735   -7.1999    6.8527 C.ar      1 <0>        -0.0957
     17 C13        -2.4938   -8.4608    7.2220 C.ar      1 <0>        -0.0715
     18 C14        -1.6010   -9.5333    7.1719 C.ar      1 <0>        -0.0135
     19 C15        -0.2877   -9.3210    6.7479 C.ar      1 <0>        -0.0716
     20 C16         0.1179   -8.0558    6.3769 C.ar      1 <0>        -0.0957
     21 C17        -2.0303  -10.8449    7.5542 C.1       1 <0>         0.2461
     22 N5         -2.3708  -11.8854    7.8574 N.1       1 <0>        -0.4046
     23 C18         1.0896   -0.8231    3.9031 C.ar      1 <0>         0.0124
     24 C19         2.0268   -0.3071    3.0049 C.ar      1 <0>        -0.0532
     25 C20         2.5611    0.9474    3.2111 C.ar      1 <0>        -0.0967
     26 C21         2.1716    1.7006    4.3091 C.ar      1 <0>         0.0370
     27 C22         1.2366    1.1917    5.2097 C.ar      1 <0>         0.0318
     28 C23         0.6927   -0.0629    5.0057 C.ar      1 <0>        -0.0924
     29 O1          1.0273    2.1179    6.1908 O.3       1 <0>        -0.3095
     30 C24         2.1424    3.0248    6.1074 C.3       1 <0>         0.2134
     31 O2          2.5461    2.9453    4.7277 O.3       1 <0>        -0.3081
     32 H1          1.0042    1.8801    0.0026 H         1 <0>         0.0778
     33 H2         -0.5455    1.8639   -0.8728 H         1 <0>         0.0741
     34 H3         -0.5286    1.8543    0.9071 H         1 <0>         0.0761
     35 H4         -0.0069   -0.1315   -2.1352 H         1 <0>         0.1336
     36 H5          0.0276   -2.6164   -2.1388 H         1 <0>         0.1356
     37 H6          0.0549   -3.8112    0.0375 H         1 <0>         0.1395
     38 H7         -0.9520   -6.1342    4.0729 H         1 <0>         0.4246
     39 H8          0.7455   -5.5070    6.2412 H         1 <0>         0.0736
     40 H9         -0.8784   -4.8715    6.5981 H         1 <0>         0.0732
     41 H10        -2.7629   -6.3695    6.8910 H         1 <0>         0.1375
     42 H11        -3.5109   -8.6181    7.5493 H         1 <0>         0.1374
     43 H12         0.4079  -10.1462    6.7068 H         1 <0>         0.1374
     44 H13         1.1323   -7.8909    6.0449 H         1 <0>         0.1375
     45 H14         2.3332   -0.8906    2.1493 H         1 <0>         0.1318
     46 H15         3.2855    1.3448    2.5157 H         1 <0>         0.1364
     47 H16        -0.0349   -0.4563    5.7001 H         1 <0>         0.1294
     48 H17         1.8307    4.0389    6.3573 H         1 <0>         0.1320
     49 H18         2.9506    2.6992    6.7623 H         1 <0>         0.0842
     50 H19         0.5666   -3.0966    5.5726 H         1 <0>         0.4194
@<TRIPOS>BOND
     1    1    2 1
     2    1   32 1
     3    1   33 1
     4    1   34 1
     5    2    7 ar
     6    2    3 ar
     7    3    4 ar
     8    3   35 1
     9    4    5 ar
    10    4   36 1
    11    5    6 ar
    12    5   37 1
    13    6    7 ar
    14    6    8 1
    15    8   12 1
    16    8    9 2
    17    9   10 1
    18    9   23 1
    19   10   11 1
    20   10   50 1
    21   11   12 2
    22   11   13 1
    23   13   14 1
    24   13   38 1
    25   14   15 1
    26   14   39 1
    27   14   40 1
    28   15   20 ar
    29   15   16 ar
    30   16   17 ar
    31   16   41 1
    32   17   18 ar
    33   17   42 1
    34   18   19 ar
    35   18   21 1
    36   19   20 ar
    37   19   43 1
    38   20   44 1
    39   21   22 3
    40   23   28 ar
    41   23   24 ar
    42   24   25 ar
    43   24   45 1
    44   25   26 ar
    45   25   46 1
    46   26   31 1
    47   26   27 ar
    48   27   28 ar
    49   27   29 1
    50   28   47 1
    51   29   30 1
    52   30   31 1
    53   30   48 1
    54   30   49 1
@<TRIPOS>MOLECULE
CHEMBL382838
   41    45     0     0     0
SMALL
USER_CHARGES

@<TRIPOS>ATOM
      1 C1         -0.0184    1.5028    0.0103 C.3       1 <0>        -0.0999
      2 C2          0.0021   -0.0041    0.0020 C.ar      1 <0>         0.1320
      3 C3          0.0056   -0.6794   -1.2046 C.ar      1 <0>        -0.1664
      4 C4          0.0249   -2.0670   -1.2080 C.ar      1 <0>        -0.0714
      5 C5          0.0401   -2.7306    0.0065 C.ar      1 <0>        -0.1479
      6 C6          0.0355   -1.9865    1.1848 C.ar      1 <0>         0.2065
      7 N1          0.0218   -0.6599    1.1445 N.ar      1 <0>        -0.4547
      8 C7          0.0510   -2.6820    2.4936 C.2       1 <0>         0.1321
      9 C8          0.5283   -2.1487    3.7165 C.2       1 <0>        -0.1524
     10 C9          0.3644   -3.1081    4.6734 C.2       1 <0>         0.0772
     11 N2         -0.1903   -4.1883    4.0899 N.pl3     1 <0>        -0.3818
     12 N3         -0.3805   -3.9008    2.7274 N.2       1 <0>        -0.2532
     13 C10        -0.4036   -5.2652    5.0709 C.3       1 <0>         0.1293
     14 C11         0.4843   -4.9054    6.2812 C.3       1 <0>        -0.1321
     15 C12         0.5908   -3.3694    6.1479 C.3       1 <0>        -0.0671
     16 C13         1.1018   -0.7957    3.9194 C.ar      1 <0>         0.0138
     17 C14         2.4443   -0.6551    4.2854 C.ar      1 <0>        -0.1114
     18 C15         2.9849    0.5823    4.4753 C.ar      1 <0>        -0.0728
     19 C16         2.1963    1.7248    4.3049 C.ar      1 <0>         0.0452
     20 C17         0.8462    1.5898    3.9370 C.ar      1 <0>         0.0474
     21 C18         0.3051    0.3288    3.7397 C.ar      1 <0>        -0.0530
     22 N4          0.3448    2.8738    3.8497 N.pl3     1 <0>        -0.6034
     23 C19         1.3608    3.7262    4.1543 C.2       1 <0>         0.2574
     24 N5          2.4432    3.0550    4.4204 N.2       1 <0>        -0.4982
     25 H1          1.0042    1.8801    0.0026 H         1 <0>         0.0778
     26 H2         -0.5455    1.8639   -0.8728 H         1 <0>         0.0757
     27 H3         -0.5286    1.8543    0.9071 H         1 <0>         0.0715
     28 H4         -0.0069   -0.1322   -2.1356 H         1 <0>         0.1365
     29 H5          0.0277   -2.6167   -2.1376 H         1 <0>         0.1390
     30 H6          0.0549   -3.8100    0.0406 H         1 <0>         0.1387
     31 H7         -1.4513   -5.3009    5.3695 H         1 <0>         0.0923
     32 H8         -0.0979   -6.2235    4.6509 H         1 <0>         0.0956
     33 H9         -0.0006   -5.1831    7.2170 H         1 <0>         0.1052
     34 H10         1.4654   -5.3731    6.1981 H         1 <0>         0.0901
     35 H11         1.5815   -3.0282    6.4481 H         1 <0>         0.0995
     36 H12        -0.1792   -2.8804    6.7446 H         1 <0>         0.0980
     37 H13         3.0578   -1.5338    4.4191 H         1 <0>         0.1229
     38 H14         4.0227    0.6801    4.7578 H         1 <0>         0.1264
     39 H15        -0.7304    0.2208    3.4524 H         1 <0>         0.1202
     40 H16         1.2806    4.8030    4.1722 H         1 <0>         0.2135
     41 H17        -0.5630    3.1219    3.6146 H         1 <0>         0.4218
@<TRIPOS>BOND
     1    1    2 1
     2    1   25 1
     3    1   26 1
     4    1   27 1
     5    2    7 ar
     6    2    3 ar
     7    3    4 ar
     8    3   28 1
     9    4    5 ar
    10    4   29 1
    11    5    6 ar
    12    5   30 1
    13    6    7 ar
    14    6    8 1
    15    8   12 2
    16    8    9 1
    17    9   10 2
    18    9   16 1
    19   10   15 1
    20   10   11 1
    21   11   12 1
    22   11   13 1
    23   13   14 1
    24   13   31 1
    25   13   32 1
    26   14   15 1
    27   14   33 1
    28   14   34 1
    29   15   35 1
    30   15   36 1
    31   16   21 ar
    32   16   17 ar
    33   17   18 ar
    34   17   37 1
    35   18   19 ar
    36   18   38 1
    37   19   24 1
    38   19   20 ar
    39   20   21 ar
    40   20   22 1
    41   21   39 1
    42   22   23 1
    43   22   41 1
    44   23   24 2
    45   23   40 1
@<TRIPOS>MOLECULE
CHEMBL382838__1
   41    45     0     0     0
SMALL
USER_CHARGES

@<TRIPOS>ATOM
      1 C1         -0.0184    1.5028    0.0103 C.3       1 <0>        -0.1028
      2 C2          0.0021   -0.0041    0.0020 C.ar      1 <0>         0.1361
      3 C3          0.0055   -0.6794   -1.2045 C.ar      1 <0>        -0.1678
      4 C4          0.0244   -2.0670   -1.2080 C.ar      1 <0>        -0.0723
      5 C5          0.0391   -2.7306    0.0066 C.ar      1 <0>        -0.1498
      6 C6          0.0346   -1.9865    1.1848 C.ar      1 <0>         0.2056
      7 N1          0.0218   -0.6599    1.1445 N.ar      1 <0>        -0.4532
      8 C7          0.0503   -2.6820    2.4936 C.2       1 <0>         0.1325
      9 C8          0.5276   -2.1488    3.7163 C.2       1 <0>        -0.1489
     10 C9          0.3639   -3.1076    4.6732 C.2       1 <0>         0.0746
     11 N2         -0.1908   -4.1881    4.0900 N.pl3     1 <0>        -0.3826
     12 N3         -0.3813   -3.9009    2.7275 N.2       1 <0>        -0.2533
     13 C10        -0.4039   -5.2648    5.0713 C.3       1 <0>         0.1296
     14 C11         0.4843   -4.9047    6.2813 C.3       1 <0>        -0.1321
     15 C12         0.5905   -3.3686    6.1477 C.3       1 <0>        -0.0663
     16 C13         1.1011   -0.7951    3.9191 C.ar      1 <0>        -0.0165
     17 C14         2.4434   -0.6550    4.2847 C.ar      1 <0>        -0.0821
     18 C15         2.9841    0.5850    4.4746 C.ar      1 <0>        -0.1221
     19 C16         2.2014    1.7201    4.3052 C.ar      1 <0>         0.0467
     20 C17         0.8504    1.5966    3.9379 C.ar      1 <0>         0.0446
     21 C18         0.3048    0.3268    3.7396 C.ar      1 <0>        -0.0015
     22 N4          0.3474    2.8550    3.8488 N.2       1 <0>        -0.4915
     23 C19         1.2786    3.7189    4.1305 C.2       1 <0>         0.2543
     24 N5          2.4418    3.0756    4.4194 N.pl3     1 <0>        -0.6056
     25 H1          3.2841    3.4916    4.6608 H         1 <0>         0.4218
     26 H2          1.0042    1.8801    0.0026 H         1 <0>         0.0744
     27 H3         -0.5455    1.8639   -0.8728 H         1 <0>         0.0741
     28 H4         -0.5286    1.8543    0.9071 H         1 <0>         0.0827
     29 H5         -0.0067   -0.1322   -2.1355 H         1 <0>         0.1360
     30 H6          0.0271   -2.6167   -2.1375 H         1 <0>         0.1380
     31 H7          0.0536   -3.8100    0.0406 H         1 <0>         0.1377
     32 H8         -1.4515   -5.3005    5.3701 H         1 <0>         0.0922
     33 H9         -0.0982   -6.2232    4.6515 H         1 <0>         0.0950
     34 H10        -0.0004   -5.1822    7.2173 H         1 <0>         0.1047
     35 H11         1.4653   -5.3723    6.1981 H         1 <0>         0.0893
     36 H12         1.5813   -3.0273    6.4477 H         1 <0>         0.0976
     37 H13        -0.1794   -2.8795    6.7444 H         1 <0>         0.0982
     38 H14         3.0571   -1.5336    4.4183 H         1 <0>         0.1233
     39 H15         4.0219    0.6831    4.7573 H         1 <0>         0.1191
     40 H16        -0.7308    0.2185    3.4529 H         1 <0>         0.1270
     41 H17         1.1472    4.7909    4.1345 H         1 <0>         0.2133
@<TRIPOS>BOND
     1    1    2 1
     2    1   26 1
     3    1   27 1
     4    1   28 1
     5    2    7 ar
     6    2    3 ar
     7    3    4 ar
     8    3   29 1
     9    4    5 ar
    10    4   30 1
    11    5    6 ar
    12    5   31 1
    13    6    7 ar
    14    6    8 1
    15    8   12 2
    16    8    9 1
    17    9   10 2
    18    9   16 1
    19   10   15 1
    20   10   11 1
    21   11   12 1
    22   11   13 1
    23   13   14 1
    24   13   32 1
    25   13   33 1
    26   14   15 1
    27   14   34 1
    28   14   35 1
    29   15   36 1
    30   15   37 1
    31   16   21 ar
    32   16   17 ar
    33   17   18 ar
    34   17   38 1
    35   18   19 ar
    36   18   39 1
    37   19   24 1
    38   19   20 ar
    39   20   21 ar
    40   20   22 1
    41   21   40 1
    42   22   23 2
    43   23   24 1
    44   23   41 1
    45   24   25 1
@<TRIPOS>MOLECULE
CHEMBL204966
   44    48     0     0     0
SMALL
USER_CHARGES

@<TRIPOS>ATOM
      1 C1         -0.0184    1.5028    0.0103 C.3       1 <0>        -0.1004
      2 C2          0.0021   -0.0041    0.0020 C.ar      1 <0>         0.1321
      3 C3          0.0056   -0.6794   -1.2046 C.ar      1 <0>        -0.1665
      4 C4          0.0249   -2.0670   -1.2080 C.ar      1 <0>        -0.0713
      5 C5          0.0401   -2.7306    0.0065 C.ar      1 <0>        -0.1479
      6 C6          0.0355   -1.9865    1.1848 C.ar      1 <0>         0.2070
      7 N1          0.0218   -0.6599    1.1445 N.ar      1 <0>        -0.4546
      8 C7          0.0510   -2.6820    2.4936 C.2       1 <0>         0.1317
      9 C8          0.5283   -2.1487    3.7165 C.2       1 <0>        -0.1514
     10 C9          0.3644   -3.1081    4.6734 C.2       1 <0>         0.0769
     11 N2         -0.1903   -4.1883    4.0899 N.pl3     1 <0>        -0.3819
     12 N3         -0.3805   -3.9008    2.7274 N.2       1 <0>        -0.2533
     13 C10        -0.4036   -5.2652    5.0709 C.3       1 <0>         0.1294
     14 C11         0.4843   -4.9054    6.2812 C.3       1 <0>        -0.1321
     15 C12         0.5908   -3.3694    6.1479 C.3       1 <0>        -0.0670
     16 C13         1.1018   -0.7957    3.9194 C.ar      1 <0>         0.0122
     17 C14         2.4443   -0.6551    4.2854 C.ar      1 <0>        -0.1121
     18 C15         2.9849    0.5823    4.4753 C.ar      1 <0>        -0.0724
     19 C16         2.1963    1.7248    4.3049 C.ar      1 <0>         0.0451
     20 C17         0.8462    1.5898    3.9370 C.ar      1 <0>         0.0476
     21 C18         0.3051    0.3288    3.7397 C.ar      1 <0>        -0.0508
     22 N4          0.3448    2.8738    3.8497 N.pl3     1 <0>        -0.4964
     23 C19         1.3608    3.7262    4.1543 C.2       1 <0>         0.2546
     24 N5          2.4432    3.0550    4.4204 N.2       1 <0>        -0.4979
     25 C20        -1.0263    3.2485    3.4946 C.3       1 <0>         0.0790
     26 H1          1.0042    1.8801    0.0026 H         1 <0>         0.0776
     27 H2         -0.5455    1.8639   -0.8728 H         1 <0>         0.0758
     28 H3         -0.5286    1.8543    0.9071 H         1 <0>         0.0712
     29 H4         -0.0069   -0.1322   -2.1356 H         1 <0>         0.1364
     30 H5          0.0277   -2.6167   -2.1376 H         1 <0>         0.1390
     31 H6          0.0549   -3.8100    0.0406 H         1 <0>         0.1386
     32 H7         -1.4513   -5.3009    5.3695 H         1 <0>         0.0921
     33 H8         -0.0979   -6.2235    4.6509 H         1 <0>         0.0955
     34 H9         -0.0006   -5.1831    7.2170 H         1 <0>         0.1051
     35 H10         1.4654   -5.3731    6.1981 H         1 <0>         0.0901
     36 H11         1.5815   -3.0282    6.4481 H         1 <0>         0.0994
     37 H12        -0.1792   -2.8804    6.7446 H         1 <0>         0.0978
     38 H13         3.0578   -1.5338    4.4191 H         1 <0>         0.1224
     39 H14         4.0227    0.6801    4.7578 H         1 <0>         0.1260
     40 H15        -0.7304    0.2208    3.4524 H         1 <0>         0.1185
     41 H16         1.2806    4.8030    4.1722 H         1 <0>         0.2104
     42 H17        -1.6332    3.3046    4.3982 H         1 <0>         0.0730
     43 H18        -1.0209    4.2196    2.9996 H         1 <0>         0.0878
     44 H19        -1.4448    2.5000    2.8217 H         1 <0>         0.0834
@<TRIPOS>BOND
     1    1    2 1
     2    1   26 1
     3    1   27 1
     4    1   28 1
     5    2    7 ar
     6    2    3 ar
     7    3    4 ar
     8    3   29 1
     9    4    5 ar
    10    4   30 1
    11    5    6 ar
    12    5   31 1
    13    6    7 ar
    14    6    8 1
    15    8   12 2
    16    8    9 1
    17    9   10 2
    18    9   16 1
    19   10   15 1
    20   10   11 1
    21   11   12 1
    22   11   13 1
    23   13   14 1
    24   13   32 1
    25   13   33 1
    26   14   15 1
    27   14   34 1
    28   14   35 1
    29   15   36 1
    30   15   37 1
    31   16   21 ar
    32   16   17 ar
    33   17   18 ar
    34   17   38 1
    35   18   19 ar
    36   18   39 1
    37   19   24 1
    38   19   20 ar
    39   20   21 ar
    40   20   22 1
    41   21   40 1
    42   22   23 1
    43   22   25 1
    44   23   24 2
    45   23   41 1
    46   25   42 1
    47   25   43 1
    48   25   44 1
@<TRIPOS>MOLECULE
CHEMBL130025
   31    34     0     0     0
SMALL
USER_CHARGES

@<TRIPOS>ATOM
      1 C1         -0.0164    1.3586    0.0095 C.ar      1 <0>        -0.1084
      2 C2          1.1699    2.0882    0.0021 C.ar      1 <0>        -0.0994
      3 C3          2.3786    1.4623   -0.0132 C.ar      1 <0>        -0.0922
      4 C4          2.4368    0.0576   -0.0212 C.ar      1 <0>         0.1329
      5 C5          1.2288   -0.6801   -0.0132 C.ar      1 <0>        -0.0834
      6 C6          0.0021   -0.0041    0.0020 C.ar      1 <0>        -0.0892
      7 C7          1.2910   -2.0972   -0.0213 C.ar      1 <0>         0.0562
      8 C8          2.5480   -2.6910   -0.0368 C.ar      1 <0>        -0.1661
      9 C9          3.6838   -1.8930   -0.0439 C.ar      1 <0>         0.1338
     10 N1          3.6110   -0.5825   -0.0358 N.ar      1 <0>        -0.4756
     11 C10         0.0595   -2.9159   -0.0130 C.2       1 <0>        -0.2034
     12 C11        -0.3566   -3.7540    0.9825 C.2       1 <0>         0.0929
     13 N2         -1.5220   -4.3087    0.6026 N.pl3     1 <0>        -0.4664
     14 H1         -2.0362   -4.9437    1.1253 H         1 <0>         0.4470
     15 N3         -1.8779   -3.8286   -0.6614 N.2       1 <0>        -0.2627
     16 C12        -0.9552   -2.9813   -1.0680 C.2       1 <0>         0.1776
     17 C13        -0.9438   -2.2402   -2.3460 C.2       1 <0>        -0.1051
     18 C14        -1.3945   -2.6362   -3.5773 C.2       1 <0>        -0.1186
     19 C15        -1.2777   -1.7635   -4.6371 C.2       1 <0>        -0.1630
     20 C16        -0.7217   -0.5423   -4.4303 C.2       1 <0>        -0.1852
     21 S1         -0.3462   -0.5925   -2.6857 S.3       1 <0>         0.1126
     22 H2         -0.9626    1.8791    0.0259 H         1 <0>         0.1283
     23 H3          1.1302    3.1675    0.0082 H         1 <0>         0.1310
     24 H4          3.2895    2.0426   -0.0195 H         1 <0>         0.1363
     25 H5         -0.9240   -0.5597    0.0082 H         1 <0>         0.1248
     26 H6          2.6403   -3.7670   -0.0431 H         1 <0>         0.1379
     27 H7          4.6556   -2.3641   -0.0560 H         1 <0>         0.1608
     28 H8          0.1601   -3.9390    1.9126 H         1 <0>         0.1884
     29 H9         -1.8326   -3.6137   -3.7149 H         1 <0>         0.1361
     30 H10        -1.6236   -2.0475   -5.6199 H         1 <0>         0.1359
     31 H11        -0.5536    0.2558   -5.1382 H         1 <0>         0.1863
@<TRIPOS>BOND
     1    1    6 ar
     2    1    2 ar
     3    1   22 1
     4    2    3 ar
     5    2   23 1
     6    3    4 ar
     7    3   24 1
     8    4   10 ar
     9    4    5 ar
    10    5    6 ar
    11    5    7 ar
    12    6   25 1
    13    7    8 ar
    14    7   11 1
    15    8    9 ar
    16    8   26 1
    17    9   10 ar
    18    9   27 1
    19   11   16 1
    20   11   12 2
    21   12   13 1
    22   12   28 1
    23   13   14 1
    24   13   15 1
    25   15   16 2
    26   16   17 1
    27   17   21 1
    28   17   18 2
    29   18   19 1
    30   18   29 1
    31   19   20 2
    32   19   30 1
    33   20   21 1
    34   20   31 1
@<TRIPOS>MOLECULE
CHEMBL130025__1
   31    34     0     0     0
SMALL
USER_CHARGES

@<TRIPOS>ATOM
      1 C1         -0.0164    1.3589    0.0095 C.ar      1 <0>        -0.1062
      2 C2          1.1698    2.0883    0.0021 C.ar      1 <0>        -0.1014
      3 C3          2.3786    1.4621   -0.0132 C.ar      1 <0>        -0.0890
      4 C4          2.4364    0.0574   -0.0212 C.ar      1 <0>         0.1325
      5 C5          1.2284   -0.6799   -0.0132 C.ar      1 <0>        -0.0829
      6 C6          0.0021   -0.0041    0.0020 C.ar      1 <0>        -0.0933
      7 C7          1.2906   -2.0979   -0.0213 C.ar      1 <0>         0.0551
      8 C8          2.5491   -2.6920   -0.0369 C.ar      1 <0>        -0.1634
      9 C9          3.6839   -1.8939   -0.0439 C.ar      1 <0>         0.1346
     10 N1          3.6106   -0.5830   -0.0358 N.ar      1 <0>        -0.4764
     11 C10         0.0609   -2.9156   -0.0130 C.2       1 <0>        -0.1912
     12 C11        -0.3600   -3.7824    1.0140 C.2       1 <0>         0.0788
     13 N2         -1.4918   -4.3278    0.6599 N.2       1 <0>        -0.2734
     14 H1         -2.6597   -4.0948   -1.0933 H         1 <0>         0.4448
     15 N3         -1.8605   -3.8483   -0.6020 N.pl3     1 <0>        -0.4575
     16 C12        -0.9046   -2.9697   -1.0182 C.2       1 <0>         0.1923
     17 C13        -0.8922   -2.2250   -2.2848 C.2       1 <0>        -0.1447
     18 C14        -1.1725   -2.6735   -3.5631 C.2       1 <0>        -0.1198
     19 C15        -1.0927   -1.7765   -4.6031 C.2       1 <0>        -0.1655
     20 C16        -0.7441   -0.4890   -4.3453 C.2       1 <0>        -0.1876
     21 S1         -0.5191   -0.5032   -2.5746 S.3       1 <0>         0.1399
     22 H2         -0.9626    1.8794    0.0259 H         1 <0>         0.1288
     23 H3          1.1303    3.1676    0.0082 H         1 <0>         0.1316
     24 H4          3.2895    2.0421   -0.0195 H         1 <0>         0.1369
     25 H5         -0.9240   -0.5597    0.0078 H         1 <0>         0.1245
     26 H6          2.6418   -3.7680   -0.0431 H         1 <0>         0.1396
     27 H7          4.6558   -2.3646   -0.0560 H         1 <0>         0.1614
     28 H8          0.1658   -3.9656    1.9394 H         1 <0>         0.1937
     29 H9         -1.4470   -3.7029   -3.7403 H         1 <0>         0.1344
     30 H10        -1.3045   -2.0926   -5.6138 H         1 <0>         0.1364
     31 H11        -0.6355    0.3346   -5.0355 H         1 <0>         0.1868
@<TRIPOS>BOND
     1    1    6 ar
     2    1    2 ar
     3    1   22 1
     4    2    3 ar
     5    2   23 1
     6    3    4 ar
     7    3   24 1
     8    4   10 ar
     9    4    5 ar
    10    5    6 ar
    11    5    7 ar
    12    6   25 1
    13    7    8 ar
    14    7   11 1
    15    8    9 ar
    16    8   26 1
    17    9   10 ar
    18    9   27 1
    19   11   12 1
    20   11   16 2
    21   12   13 2
    22   12   28 1
    23   13   15 1
    24   14   15 1
    25   15   16 1
    26   16   17 1
    27   17   21 1
    28   17   18 2
    29   18   19 1
    30   18   29 1
    31   19   20 2
    32   19   30 1
    33   20   21 1
    34   20   31 1
@<TRIPOS>MOLECULE
CHEMBL338196
   40    44     0     0     0
SMALL
USER_CHARGES

@<TRIPOS>ATOM
      1 C1         -0.0164    1.3585    0.0095 C.ar      1 <0>        -0.1239
      2 C2          1.1699    2.0882    0.0021 C.ar      1 <0>        -0.0996
      3 C3          2.3787    1.4625   -0.0128 C.ar      1 <0>        -0.0981
      4 C4          2.4370    0.0577   -0.0208 C.ar      1 <0>         0.1312
      5 C5          1.2290   -0.6802   -0.0132 C.ar      1 <0>        -0.0711
      6 C6          0.0021   -0.0041    0.0020 C.ar      1 <0>        -0.0749
      7 C7          1.2912   -2.0970   -0.0213 C.ar      1 <0>         0.0837
      8 C8          2.5477   -2.6907   -0.0364 C.ar      1 <0>        -0.1727
      9 C9          3.6839   -1.8927   -0.0430 C.ar      1 <0>         0.1336
     10 N1          3.6110   -0.5824   -0.0349 N.ar      1 <0>        -0.4793
     11 C10         0.0591   -2.9160   -0.0134 C.2       1 <0>        -0.1768
     12 C11        -0.6771   -3.3991   -1.1830 C.2       1 <0>         0.1438
     13 N2         -1.7057   -4.0852   -0.7337 N.2       1 <0>        -0.2614
     14 N3         -1.6780   -4.0742    0.6643 N.pl3     1 <0>        -0.4650
     15 H1         -2.3263   -4.5082    1.2407 H         1 <0>         0.4416
     16 C12        -0.6094   -3.3733    1.0864 C.2       1 <0>         0.1443
     17 C13        -0.2203   -3.1322    2.5222 C.3       1 <0>        -0.1028
     18 C14        -0.9880   -3.8994    3.6006 C.3       1 <0>        -0.1716
     19 C15        -1.2256   -2.3996    3.4131 C.3       1 <0>        -0.1591
     20 C16        -0.3297   -3.1601   -2.6040 C.ar      1 <0>         0.1928
     21 C17        -0.7657   -4.0527   -3.5819 C.ar      1 <0>        -0.1398
     22 C18        -0.4338   -3.8160   -4.9042 C.ar      1 <0>        -0.0755
     23 C19         0.3242   -2.6932   -5.2064 C.ar      1 <0>        -0.1625
     24 C20         0.7232   -1.8496   -4.1864 C.ar      1 <0>         0.1048
     25 N4          0.3893   -2.0953   -2.9356 N.ar      1 <0>        -0.4534
     26 H2         -0.9626    1.8790    0.0259 H         1 <0>         0.1228
     27 H3          1.1302    3.1675    0.0079 H         1 <0>         0.1273
     28 H4          3.2895    2.0428   -0.0187 H         1 <0>         0.1332
     29 H5         -0.9240   -0.5597    0.0086 H         1 <0>         0.1196
     30 H6          2.6399   -3.7668   -0.0426 H         1 <0>         0.1316
     31 H7          4.6556   -2.3638   -0.0543 H         1 <0>         0.1567
     32 H8          0.8387   -2.9422    2.6967 H         1 <0>         0.1323
     33 H9         -1.7744   -4.5786    3.2716 H         1 <0>         0.0933
     34 H10        -0.4339   -4.2145    4.4848 H         1 <0>         0.1102
     35 H11        -0.8279   -1.7281    4.1739 H         1 <0>         0.1090
     36 H12        -2.1684   -2.0921    2.9607 H         1 <0>         0.0984
     37 H13        -1.3540   -4.9171   -3.3113 H         1 <0>         0.1396
     38 H14        -0.7570   -4.4900   -5.6837 H         1 <0>         0.1397
     39 H15         0.6001   -2.4807   -6.2287 H         1 <0>         0.1388
     40 H16         1.3130   -0.9752   -4.4184 H         1 <0>         0.1592
@<TRIPOS>BOND
     1    1    6 ar
     2    1    2 ar
     3    1   26 1
     4    2    3 ar
     5    2   27 1
     6    3    4 ar
     7    3   28 1
     8    4   10 ar
     9    4    5 ar
    10    5    6 ar
    11    5    7 ar
    12    6   29 1
    13    7    8 ar
    14    7   11 1
    15    8    9 ar
    16    8   30 1
    17    9   10 ar
    18    9   31 1
    19   11   16 2
    20   11   12 1
    21   12   13 2
    22   12   20 1
    23   13   14 1
    24   14   15 1
    25   14   16 1
    26   16   17 1
    27   17   19 1
    28   17   18 1
    29   17   32 1
    30   18   19 1
    31   18   33 1
    32   18   34 1
    33   19   35 1
    34   19   36 1
    35   20   25 ar
    36   20   21 ar
    37   21   22 ar
    38   21   37 1
    39   22   23 ar
    40   22   38 1
    41   23   24 ar
    42   23   39 1
    43   24   25 ar
    44   24   40 1
@<TRIPOS>MOLECULE
CHEMBL338196__1
   40    44     0     0     0
SMALL
USER_CHARGES

@<TRIPOS>ATOM
      1 C1         -0.0164    1.3586    0.0095 C.ar      1 <0>        -0.1237
      2 C2          1.1699    2.0883    0.0021 C.ar      1 <0>        -0.0997
      3 C3          2.3786    1.4625   -0.0128 C.ar      1 <0>        -0.0980
      4 C4          2.4369    0.0577   -0.0209 C.ar      1 <0>         0.1313
      5 C5          1.2288   -0.6801   -0.0133 C.ar      1 <0>        -0.0689
      6 C6          0.0021   -0.0041    0.0020 C.ar      1 <0>        -0.0751
      7 C7          1.2910   -2.0973   -0.0215 C.ar      1 <0>         0.0809
      8 C8          2.5481   -2.6911   -0.0367 C.ar      1 <0>        -0.1723
      9 C9          3.6840   -1.8927   -0.0432 C.ar      1 <0>         0.1337
     10 N1          3.6109   -0.5824   -0.0351 N.ar      1 <0>        -0.4790
     11 C10         0.0597   -2.9159   -0.0137 C.2       1 <0>        -0.1584
     12 C11        -0.6354   -3.3719   -1.1290 C.2       1 <0>         0.1455
     13 N2         -1.7016   -4.0832   -0.6693 N.pl3     1 <0>        -0.4604
     14 N3         -1.6658   -4.0669    0.7297 N.2       1 <0>        -0.2693
     15 H1         -2.3700   -4.5246   -1.2164 H         1 <0>         0.4436
     16 C12        -0.6246   -3.3843    1.1237 C.2       1 <0>         0.1316
     17 C13        -0.2253   -3.1360    2.5555 C.3       1 <0>        -0.0899
     18 C14        -0.9849   -3.8982    3.6431 C.3       1 <0>        -0.1618
     19 C15        -1.2245   -2.3994    3.4500 C.3       1 <0>        -0.1584
     20 C16        -0.2837   -3.1305   -2.5428 C.ar      1 <0>         0.1760
     21 C17        -0.7167   -4.0218   -3.5264 C.ar      1 <0>        -0.1585
     22 C18        -0.3793   -3.7813   -4.8462 C.ar      1 <0>        -0.0687
     23 C19         0.3803   -2.6576   -5.1423 C.ar      1 <0>        -0.1611
     24 C20         0.7759   -1.8161   -4.1187 C.ar      1 <0>         0.1110
     25 N4          0.4377   -2.0637   -2.8700 N.ar      1 <0>        -0.4480
     26 H2         -0.9626    1.8791    0.0259 H         1 <0>         0.1229
     27 H3          1.1302    3.1675    0.0079 H         1 <0>         0.1273
     28 H4          3.2895    2.0428   -0.0188 H         1 <0>         0.1332
     29 H5         -0.9240   -0.5597    0.0082 H         1 <0>         0.1193
     30 H6          2.6405   -3.7671   -0.0429 H         1 <0>         0.1314
     31 H7          4.6559   -2.3636   -0.0550 H         1 <0>         0.1567
     32 H8          0.8349   -2.9448    2.7215 H         1 <0>         0.1240
     33 H9         -1.7735   -4.5793    3.3230 H         1 <0>         0.1034
     34 H10        -0.4245   -4.2088    4.5249 H         1 <0>         0.1015
     35 H11        -0.8216   -1.7240    4.2047 H         1 <0>         0.1028
     36 H12        -2.1706   -2.0945    3.0029 H         1 <0>         0.0967
     37 H13        -1.3062   -4.8868   -3.2606 H         1 <0>         0.1331
     38 H14        -0.6994   -4.4531   -5.6289 H         1 <0>         0.1416
     39 H15         0.6601   -2.4427   -6.1631 H         1 <0>         0.1414
     40 H16         1.3668   -0.9413   -4.3468 H         1 <0>         0.1620
@<TRIPOS>BOND
     1    1    6 ar
     2    1    2 ar
     3    1   26 1
     4    2    3 ar
     5    2   27 1
     6    3    4 ar
     7    3   28 1
     8    4   10 ar
     9    4    5 ar
    10    5    6 ar
    11    5    7 ar
    12    6   29 1
    13    7    8 ar
    14    7   11 1
    15    8    9 ar
    16    8   30 1
    17    9   10 ar
    18    9   31 1
    19   11   16 1
    20   11   12 2
    21   12   20 1
    22   12   13 1
    23   13   14 1
    24   13   15 1
    25   14   16 2
    26   16   17 1
    27   17   19 1
    28   17   18 1
    29   17   32 1
    30   18   19 1
    31   18   33 1
    32   18   34 1
    33   19   35 1
    34   19   36 1
    35   20   25 ar
    36   20   21 ar
    37   21   22 ar
    38   21   37 1
    39   22   23 ar
    40   22   38 1
    41   23   24 ar
    42   23   39 1
    43   24   25 ar
    44   24   40 1
@<TRIPOS>MOLECULE
CHEMBL401570
   47    50     0     0     0
SMALL
USER_CHARGES

@<TRIPOS>ATOM
      1 C1         -0.0184    1.5028    0.0103 C.3       1 <0>        -0.1070
      2 C2          0.0021   -0.0041    0.0020 C.ar      1 <0>         0.1422
      3 C3          0.0055   -0.6792   -1.2049 C.ar      1 <0>        -0.1707
      4 C4          0.0244   -2.0675   -1.2099 C.ar      1 <0>        -0.0626
      5 C5          0.0392   -2.7326    0.0026 C.ar      1 <0>        -0.1750
      6 C6          0.0347   -1.9884    1.1844 C.ar      1 <0>         0.2022
      7 N1          0.0218   -0.6595    1.1444 N.ar      1 <0>        -0.4607
      8 C7          0.0503   -2.6818    2.4867 C.2       1 <0>         0.0242
      9 C8          0.5118   -2.1790    3.6909 C.2       1 <0>         0.0903
     10 N2          0.3402   -3.1390    4.6185 N.2       1 <0>        -0.4667
     11 C9         -0.1935   -4.1914    4.0638 C.2       1 <0>         0.2499
     12 N3         -0.3965   -3.9564    2.7500 N.pl3     1 <0>        -0.5508
     13 H1         -0.7843   -4.5729    2.1093 H         1 <0>         0.4216
     14 C10        -0.5363   -5.4719    4.7806 C.3       1 <0>         0.0143
     15 C11         0.4921   -6.5471    4.4240 C.3       1 <0>        -0.1428
     16 C12        -0.5191   -5.2310    6.2915 C.3       1 <0>        -0.1302
     17 C13        -1.9299   -5.9377    4.3543 C.3       1 <0>        -0.1480
     18 C14         1.0884   -0.8341    3.9167 C.ar      1 <0>         0.0283
     19 C15         1.8665   -0.2314    2.9127 C.ar      1 <0>        -0.0422
     20 C16         2.4058    1.0005    3.0958 C.ar      1 <0>        -0.0930
     21 C17         2.1896    1.6922    4.3024 C.ar      1 <0>         0.0852
     22 C18         1.4061    1.0941    5.3228 C.ar      1 <0>         0.0781
     23 C19         0.8526   -0.1782    5.1116 C.ar      1 <0>        -0.0567
     24 N4          1.2002    1.7526    6.4695 N.ar      1 <0>        -0.4225
     25 C20         1.7249    2.9451    6.6388 C.ar      1 <0>         0.0705
     26 C21         2.4957    3.5333    5.6346 C.ar      1 <0>         0.0728
     27 N5          2.7125    2.9066    4.5003 N.ar      1 <0>        -0.4274
     28 H2          1.0042    1.8801    0.0026 H         1 <0>         0.0826
     29 H3         -0.5455    1.8639   -0.8728 H         1 <0>         0.0777
     30 H4         -0.5286    1.8543    0.9071 H         1 <0>         0.0787
     31 H5         -0.0067   -0.1313   -2.1355 H         1 <0>         0.1390
     32 H6          0.0270   -2.6159   -2.1403 H         1 <0>         0.1393
     33 H7          0.0536   -3.8121    0.0352 H         1 <0>         0.1290
     34 H8          1.4850   -6.2152    4.7277 H         1 <0>         0.0650
     35 H9          0.2442   -7.4733    4.9424 H         1 <0>         0.0720
     36 H10         0.4799   -6.7188    3.3476 H         1 <0>         0.0535
     37 H11        -1.2518   -4.4650    6.5456 H         1 <0>         0.0619
     38 H12        -0.7671   -6.1571    6.8099 H         1 <0>         0.0631
     39 H13         0.4737   -4.8991    6.5952 H         1 <0>         0.0701
     40 H14        -1.9421   -6.1094    3.2779 H         1 <0>         0.0521
     41 H15        -2.1778   -6.8639    4.8727 H         1 <0>         0.0749
     42 H16        -2.6626   -5.1717    4.6084 H         1 <0>         0.0634
     43 H17         2.0375   -0.7555    1.9840 H         1 <0>         0.1262
     44 H18         3.0015    1.4502    2.3153 H         1 <0>         0.1374
     45 H19         0.2506   -0.6436    5.8780 H         1 <0>         0.1431
     46 H20         1.5579    3.4760    7.5643 H         1 <0>         0.1739
     47 H21         2.9187    4.5145    5.7918 H         1 <0>         0.1736
@<TRIPOS>BOND
     1    1    2 1
     2    1   28 1
     3    1   29 1
     4    1   30 1
     5    2    7 ar
     6    2    3 ar
     7    3    4 ar
     8    3   31 1
     9    4    5 ar
    10    4   32 1
    11    5    6 ar
    12    5   33 1
    13    6    7 ar
    14    6    8 1
    15    8   12 1
    16    8    9 2
    17    9   10 1
    18    9   18 1
    19   10   11 2
    20   11   12 1
    21   11   14 1
    22   12   13 1
    23   14   15 1
    24   14   16 1
    25   14   17 1
    26   15   34 1
    27   15   35 1
    28   15   36 1
    29   16   37 1
    30   16   38 1
    31   16   39 1
    32   17   40 1
    33   17   41 1
    34   17   42 1
    35   18   23 ar
    36   18   19 ar
    37   19   20 ar
    38   19   43 1
    39   20   21 ar
    40   20   44 1
    41   21   27 ar
    42   21   22 ar
    43   22   23 ar
    44   22   24 ar
    45   23   45 1
    46   24   25 ar
    47   25   26 ar
    48   25   46 1
    49   26   27 ar
    50   26   47 1
@<TRIPOS>MOLECULE
CHEMBL401570__1
   47    50     0     0     0
SMALL
USER_CHARGES

@<TRIPOS>ATOM
      1 C1         -0.0184    1.5028    0.0103 C.3       1 <0>        -0.1035
      2 C2          0.0021   -0.0041    0.0020 C.ar      1 <0>         0.1328
      3 C3          0.0055   -0.6793   -1.2045 C.ar      1 <0>        -0.1719
      4 C4          0.0244   -2.0673   -1.2086 C.ar      1 <0>        -0.0720
      5 C5          0.0392   -2.7315    0.0050 C.ar      1 <0>        -0.1468
      6 C6          0.0346   -1.9873    1.1847 C.ar      1 <0>         0.2087
      7 N1          0.0218   -0.6598    1.1445 N.ar      1 <0>        -0.4708
      8 C7          0.0498   -2.6823    2.4914 C.2       1 <0>         0.0689
      9 C8          0.5150   -2.1658    3.6884 C.2       1 <0>         0.0476
     10 N2          0.3352   -3.1530    4.6280 N.pl3     1 <0>        -0.5556
     11 C9         -0.2202   -4.2165    3.9950 C.2       1 <0>         0.2426
     12 N3         -0.3917   -3.9307    2.7348 N.2       1 <0>        -0.4606
     13 H1          0.5634   -3.0992    5.5692 H         1 <0>         0.4229
     14 C10        -0.5873   -5.5238    4.6486 C.3       1 <0>         0.0158
     15 C11        -1.8599   -5.3397    5.4778 C.3       1 <0>        -0.1434
     16 C12        -0.8295   -6.5825    3.5709 C.3       1 <0>        -0.1294
     17 C13         0.5547   -5.9764    5.5606 C.3       1 <0>        -0.1479
     18 C14         1.0893   -0.8247    3.9110 C.ar      1 <0>         0.0270
     19 C15         2.0344   -0.3098    3.0037 C.ar      1 <0>        -0.0455
     20 C16         2.5760    0.9202    3.1875 C.ar      1 <0>        -0.0815
     21 C17         2.1952    1.7005    4.2957 C.ar      1 <0>         0.0860
     22 C18         1.2431    1.1932    5.2174 C.ar      1 <0>         0.0821
     23 C19         0.6900   -0.0792    5.0085 C.ar      1 <0>        -0.0781
     24 N4          0.8815    1.9361    6.2704 N.ar      1 <0>        -0.4257
     25 C20         1.4112    3.1265    6.4400 C.ar      1 <0>         0.0752
     26 C21         2.3474    3.6253    5.5329 C.ar      1 <0>         0.0755
     27 N5          2.7187    2.9148    4.4917 N.ar      1 <0>        -0.4245
     28 H2          1.0042    1.8801    0.0026 H         1 <0>         0.0784
     29 H3         -0.5455    1.8639   -0.8728 H         1 <0>         0.0754
     30 H4         -0.5286    1.8543    0.9071 H         1 <0>         0.0744
     31 H5         -0.0067   -0.1318   -2.1354 H         1 <0>         0.1348
     32 H6          0.0271   -2.6165   -2.1385 H         1 <0>         0.1370
     33 H7          0.0536   -3.8109    0.0384 H         1 <0>         0.1400
     34 H8         -2.6734   -5.0173    4.8280 H         1 <0>         0.0643
     35 H9         -2.1254   -6.2853    5.9506 H         1 <0>         0.0716
     36 H10        -1.6873   -4.5855    6.2456 H         1 <0>         0.0541
     37 H11         0.0771   -6.7136    2.9801 H         1 <0>         0.0613
     38 H12        -1.0951   -7.5281    4.0436 H         1 <0>         0.0628
     39 H13        -1.6431   -6.2600    2.9211 H         1 <0>         0.0692
     40 H14         0.7273   -5.2222    6.3284 H         1 <0>         0.0528
     41 H15         0.2892   -6.9220    6.0334 H         1 <0>         0.0743
     42 H16         1.4613   -6.1076    4.9698 H         1 <0>         0.0632
     43 H17         2.3322   -0.9017    2.1508 H         1 <0>         0.1300
     44 H18         3.3005    1.3013    2.4831 H         1 <0>         0.1416
     45 H19        -0.0386   -0.4760    5.6998 H         1 <0>         0.1355
     46 H20         1.1188    3.7253    7.2899 H         1 <0>         0.1758
     47 H21         2.7714    4.6063    5.6885 H         1 <0>         0.1758
@<TRIPOS>BOND
     1    1    2 1
     2    1   28 1
     3    1   29 1
     4    1   30 1
     5    2    7 ar
     6    2    3 ar
     7    3    4 ar
     8    3   31 1
     9    4    5 ar
    10    4   32 1
    11    5    6 ar
    12    5   33 1
    13    6    7 ar
    14    6    8 1
    15    8   12 1
    16    8    9 2
    17    9   18 1
    18    9   10 1
    19   10   11 1
    20   10   13 1
    21   11   14 1
    22   11   12 2
    23   14   15 1
    24   14   16 1
    25   14   17 1
    26   15   34 1
    27   15   35 1
    28   15   36 1
    29   16   37 1
    30   16   38 1
    31   16   39 1
    32   17   40 1
    33   17   41 1
    34   17   42 1
    35   18   23 ar
    36   18   19 ar
    37   19   20 ar
    38   19   43 1
    39   20   21 ar
    40   20   44 1
    41   21   27 ar
    42   21   22 ar
    43   22   23 ar
    44   22   24 ar
    45   23   45 1
    46   24   25 ar
    47   25   26 ar
    48   25   46 1
    49   26   27 ar
    50   26   47 1
@<TRIPOS>MOLECULE
CHEMBL565846
   52    56     0     0     0
SMALL
USER_CHARGES

@<TRIPOS>ATOM
      1 C1         -0.0184    1.5028    0.0103 C.3       1 <0>        -0.1031
      2 C2          0.0021   -0.0041    0.0020 C.ar      1 <0>         0.1318
      3 C3          0.0055   -0.6791   -1.2044 C.ar      1 <0>        -0.1723
      4 C4          0.0244   -2.0676   -1.2092 C.ar      1 <0>        -0.0722
      5 C5          0.0392   -2.7324    0.0034 C.ar      1 <0>        -0.1485
      6 C6          0.0347   -1.9883    1.1846 C.ar      1 <0>         0.2108
      7 N1          0.0218   -0.6598    1.1447 N.ar      1 <0>        -0.4676
      8 C7          0.0498   -2.6828    2.4891 C.2       1 <0>         0.0590
      9 C8          0.5171   -2.1648    3.6924 C.2       1 <0>         0.0749
     10 N2          0.3354   -3.1569    4.6310 N.pl3     1 <0>        -0.5507
     11 C9         -0.2210   -4.2196    3.9920 C.2       1 <0>         0.1937
     12 N3         -0.3917   -3.9315    2.7327 N.2       1 <0>        -0.4436
     13 C10        -0.5897   -5.5284    4.6416 C.3       1 <0>         0.2109
     14 N4         -2.0040   -5.5030    5.0227 N.pl3     1 <0>        -0.7344
     15 C11        -2.5773   -6.6087    5.6441 C.ar      1 <0>         0.2477
     16 C12        -1.8040   -7.7355    5.9077 C.ar      1 <0>        -0.2021
     17 C13        -2.3678   -8.8307    6.5220 C.ar      1 <0>        -0.0170
     18 C14        -3.7188   -8.8104    6.8812 C.ar      1 <0>        -0.0937
     19 C15        -4.4926   -7.6769    6.6150 C.ar      1 <0>        -0.0179
     20 C16        -3.9211   -6.5829    6.0055 C.ar      1 <0>        -0.1948
     21 C17        -4.3087   -9.9482    7.5201 C.1       1 <0>         0.2586
     22 N5         -4.7766  -10.8508    8.0268 N.1       1 <0>        -0.4310
     23 C18         1.0858   -0.8371    3.9159 C.2       1 <0>        -0.0446
     24 C19         2.3395   -0.5803    3.4871 C.2       1 <0>        -0.0701
     25 C20         2.9348    0.6921    3.7197 C.2       1 <0>        -0.1185
     26 C21         2.3579    1.4893    4.6202 C.2       1 <0>         0.0207
     27 C22         1.1661    1.0842    5.4782 C.3       1 <0>         0.0844
     28 C23         0.2529    0.2081    4.6133 C.3       1 <0>        -0.0784
     29 O1          0.5217    2.3289    5.7968 O.3       1 <0>        -0.3720
     30 C24         1.3359    3.3556    5.1933 C.3       1 <0>         0.2033
     31 O2          2.6403    2.7588    5.0019 O.3       1 <0>        -0.3082
     32 H1          1.0042    1.8801    0.0026 H         1 <0>         0.0778
     33 H2         -0.5455    1.8639   -0.8728 H         1 <0>         0.0753
     34 H3         -0.5286    1.8543    0.9071 H         1 <0>         0.0749
     35 H4         -0.0067   -0.1313   -2.1351 H         1 <0>         0.1345
     36 H5          0.0270   -2.6163   -2.1394 H         1 <0>         0.1368
     37 H6          0.0536   -3.8118    0.0361 H         1 <0>         0.1390
     38 H7         -0.4173   -6.3439    3.9393 H         1 <0>         0.1002
     39 H8          0.0234   -5.6784    5.5302 H         1 <0>         0.0834
     40 H9         -2.5410   -4.7156    4.8421 H         1 <0>         0.4069
     41 H10        -0.7606   -7.7507    5.6296 H         1 <0>         0.1319
     42 H11        -1.7672   -9.7049    6.7259 H         1 <0>         0.1323
     43 H12        -5.5365   -7.6579    6.8912 H         1 <0>         0.1323
     44 H13        -4.5171   -5.7052    5.8038 H         1 <0>         0.1310
     45 H14         2.8950   -1.3450    2.9645 H         1 <0>         0.1258
     46 H15         3.8218    1.0006    3.1863 H         1 <0>         0.1406
     47 H16         1.4878    0.5550    6.3752 H         1 <0>         0.1102
     48 H17        -0.2524    0.8256    3.8707 H         1 <0>         0.1008
     49 H18        -0.4881   -0.2801    5.2462 H         1 <0>         0.0821
     50 H19         0.9143    3.6548    4.2337 H         1 <0>         0.0796
     51 H20         1.4096    4.2165    5.8578 H         1 <0>         0.1235
     52 H21         0.5622   -3.1063    5.5727 H         1 <0>         0.4258
@<TRIPOS>BOND
     1    1    2 1
     2    1   32 1
     3    1   33 1
     4    1   34 1
     5    2    7 ar
     6    2    3 ar
     7    3    4 ar
     8    3   35 1
     9    4    5 ar
    10    4   36 1
    11    5    6 ar
    12    5   37 1
    13    6    7 ar
    14    6    8 1
    15    8   12 1
    16    8    9 2
    17    9   10 1
    18    9   23 1
    19   10   11 1
    20   10   52 1
    21   11   12 2
    22   11   13 1
    23   13   14 1
    24   13   38 1
    25   13   39 1
    26   14   15 1
    27   14   40 1
    28   15   20 ar
    29   15   16 ar
    30   16   17 ar
    31   16   41 1
    32   17   18 ar
    33   17   42 1
    34   18   19 ar
    35   18   21 1
    36   19   20 ar
    37   19   43 1
    38   20   44 1
    39   21   22 3
    40   23   28 1
    41   23   24 2
    42   24   25 1
    43   24   45 1
    44   25   26 2
    45   25   46 1
    46   26   31 1
    47   26   27 1
    48   27   28 1
    49   27   29 1
    50   27   47 1
    51   28   48 1
    52   28   49 1
    53   29   30 1
    54   30   31 1
    55   30   50 1
    56   30   51 1
@<TRIPOS>MOLECULE
CHEMBL565846__1
   52    56     0     0     0
SMALL
USER_CHARGES

@<TRIPOS>ATOM
      1 C1         -0.2171    1.6593    0.2433 C.3       1 <0>        -0.1063
      2 C2         -0.2699    0.1550    0.1711 C.ar      1 <0>         0.1428
      3 C3         -0.4453   -0.4629   -1.0534 C.ar      1 <0>        -0.1697
      4 C4         -0.4932   -1.8495   -1.1181 C.ar      1 <0>        -0.0635
      5 C5         -0.3628   -2.5707    0.0541 C.ar      1 <0>        -0.1749
      6 C6         -0.1880   -1.8826    1.2583 C.ar      1 <0>         0.2012
      7 N1         -0.1428   -0.5529    1.2748 N.ar      1 <0>        -0.4546
      8 C7         -0.0473   -2.6350    2.5170 C.2       1 <0>         0.0358
      9 C8          0.6011   -2.2168    3.6728 C.2       1 <0>         0.0942
     10 N2          0.4888   -3.2120    4.5758 N.2       1 <0>        -0.4514
     11 C9         -0.1791   -4.2022    4.0542 C.2       1 <0>         0.2058
     12 N3         -0.5373   -3.8943    2.7894 N.pl3     1 <0>        -0.5462
     13 H1         -1.0441   -4.4568    2.1831 H         1 <0>         0.4244
     14 C10        -0.5069   -5.4936    4.7584 C.3       1 <0>         0.2087
     15 N4          0.6184   -6.4220    4.6249 N.pl3     1 <0>        -0.7343
     16 C11         0.5475   -7.6886    5.1977 C.ar      1 <0>         0.2475
     17 C12        -0.5956   -8.0734    5.8922 C.ar      1 <0>        -0.2019
     18 C13        -0.6691   -9.3252    6.4599 C.ar      1 <0>        -0.0170
     19 C14         0.4062  -10.2104    6.3383 C.ar      1 <0>        -0.0932
     20 C15         1.5530   -9.8205    5.6400 C.ar      1 <0>        -0.0180
     21 C16         1.6175   -8.5693    5.0699 C.ar      1 <0>        -0.1945
     22 C17         0.3334  -11.5133    6.9281 C.1       1 <0>         0.2583
     23 N5          0.2757  -12.5469    7.3960 N.1       1 <0>        -0.4306
     24 C18         1.2818   -0.9307    3.8734 C.2       1 <0>        -0.0154
     25 C19         2.3264   -0.6130    3.0843 C.2       1 <0>        -0.0867
     26 C20         3.0453    0.6512    3.2960 C.2       1 <0>        -0.1133
     27 C21         2.8329    1.2859    4.4495 C.2       1 <0>         0.0098
     28 C22         1.9777    0.7308    5.5808 C.3       1 <0>         0.0876
     29 C23         0.7881   -0.0017    4.9519 C.3       1 <0>        -0.0777
     30 O1          1.5352    1.8978    6.2941 O.3       1 <0>        -0.3736
     31 C24         2.1439    3.0200    5.6226 C.3       1 <0>         0.2035
     32 O2          3.2811    2.4797    4.9092 O.3       1 <0>        -0.3101
     33 H2          0.8139    1.9928    0.1248 H         1 <0>         0.0821
     34 H3         -0.8298    2.0830   -0.5524 H         1 <0>         0.0771
     35 H4         -0.5971    1.9902    1.2098 H         1 <0>         0.0790
     36 H5         -0.5445    0.1279   -1.9520 H         1 <0>         0.1386
     37 H6         -0.6298   -2.3533   -2.0636 H         1 <0>         0.1391
     38 H7         -0.3958   -3.6501    0.0398 H         1 <0>         0.1287
     39 H8         -0.6909   -5.2951    5.8142 H         1 <0>         0.1019
     40 H9         -1.3974   -5.9354    4.3112 H         1 <0>         0.0836
     41 H10         1.4130   -6.1541    4.1372 H         1 <0>         0.4069
     42 H11        -1.4257   -7.3890    5.9860 H         1 <0>         0.1319
     43 H12        -1.5562   -9.6231    6.9990 H         1 <0>         0.1324
     44 H13         2.3854  -10.5019    5.5442 H         1 <0>         0.1324
     45 H14         2.5012   -8.2692    4.5263 H         1 <0>         0.1311
     46 H15         2.6350   -1.2860    2.2980 H         1 <0>         0.1199
     47 H16         3.7165    1.0493    2.5494 H         1 <0>         0.1381
     48 H17         2.5570    0.0649    6.2204 H         1 <0>         0.1120
     49 H18         0.0991    0.7233    4.5186 H         1 <0>         0.0908
     50 H19         0.2713   -0.5786    5.7189 H         1 <0>         0.0896
     51 H20         1.4385    3.4677    4.9226 H         1 <0>         0.0765
     52 H21         2.4739    3.7607    6.3511 H         1 <0>         0.1212
@<TRIPOS>BOND
     1    1    2 1
     2    1   33 1
     3    1   34 1
     4    1   35 1
     5    2    7 ar
     6    2    3 ar
     7    3    4 ar
     8    3   36 1
     9    4    5 ar
    10    4   37 1
    11    5    6 ar
    12    5   38 1
    13    6    7 ar
    14    6    8 1
    15    8   12 1
    16    8    9 2
    17    9   10 1
    18    9   24 1
    19   10   11 2
    20   11   12 1
    21   11   14 1
    22   12   13 1
    23   14   15 1
    24   14   39 1
    25   14   40 1
    26   15   16 1
    27   15   41 1
    28   16   21 ar
    29   16   17 ar
    30   17   18 ar
    31   17   42 1
    32   18   19 ar
    33   18   43 1
    34   19   20 ar
    35   19   22 1
    36   20   21 ar
    37   20   44 1
    38   21   45 1
    39   22   23 3
    40   24   29 1
    41   24   25 2
    42   25   26 1
    43   25   46 1
    44   26   27 2
    45   26   47 1
    46   27   32 1
    47   27   28 1
    48   28   29 1
    49   28   30 1
    50   28   48 1
    51   29   49 1
    52   29   50 1
    53   30   31 1
    54   31   32 1
    55   31   51 1
    56   31   52 1
@<TRIPOS>MOLECULE
CHEMBL565846__2
   52    56     0     0     0
SMALL
USER_CHARGES

@<TRIPOS>ATOM
      1 C1         -0.0184    1.5028    0.0103 C.3       1 <0>        -0.1039
      2 C2          0.0021   -0.0041    0.0020 C.ar      1 <0>         0.1304
      3 C3          0.0055   -0.6791   -1.2044 C.ar      1 <0>        -0.1723
      4 C4          0.0244   -2.0676   -1.2092 C.ar      1 <0>        -0.0718
      5 C5          0.0392   -2.7324    0.0034 C.ar      1 <0>        -0.1484
      6 C6          0.0347   -1.9883    1.1846 C.ar      1 <0>         0.2136
      7 N1          0.0218   -0.6598    1.1447 N.ar      1 <0>        -0.4682
      8 C7          0.0498   -2.6828    2.4891 C.2       1 <0>         0.0548
      9 C8          0.5171   -2.1648    3.6924 C.2       1 <0>         0.0842
     10 N2          0.3354   -3.1569    4.6310 N.pl3     1 <0>        -0.5515
     11 C9         -0.2210   -4.2196    3.9920 C.2       1 <0>         0.1911
     12 N3         -0.3917   -3.9315    2.7327 N.2       1 <0>        -0.4435
     13 C10        -0.5897   -5.5284    4.6416 C.3       1 <0>         0.2111
     14 N4         -2.0040   -5.5030    5.0227 N.pl3     1 <0>        -0.7342
     15 C11        -2.5773   -6.6087    5.6441 C.ar      1 <0>         0.2479
     16 C12        -1.8040   -7.7355    5.9077 C.ar      1 <0>        -0.2022
     17 C13        -2.3678   -8.8307    6.5220 C.ar      1 <0>        -0.0169
     18 C14        -3.7188   -8.8104    6.8812 C.ar      1 <0>        -0.0940
     19 C15        -4.4926   -7.6769    6.6150 C.ar      1 <0>        -0.0179
     20 C16        -3.9211   -6.5829    6.0055 C.ar      1 <0>        -0.1951
     21 C17        -4.3087   -9.9482    7.5201 C.1       1 <0>         0.2587
     22 N5         -4.7766  -10.8508    8.0268 N.1       1 <0>        -0.4313
     23 C18         1.0858   -0.8371    3.9159 C.2       1 <0>        -0.0726
     24 C19         2.3395   -0.5772    3.4882 C.2       1 <0>        -0.0479
     25 C20         2.9103    0.7137    3.6645 C.2       1 <0>        -0.1671
     26 C21         2.0868    1.7266    3.9624 C.2       1 <0>         0.0573
     27 C22         0.5701    1.5822    4.0211 C.3       1 <0>         0.0784
     28 C23         0.2555    0.2108    4.6132 C.3       1 <0>        -0.0589
     29 O1          0.2045    2.6282    4.9502 O.3       1 <0>        -0.3643
     30 C24         1.1344    3.6789    4.5903 C.3       1 <0>         0.1997
     31 O2          2.3657    3.0150    4.2504 O.3       1 <0>        -0.3088
     32 H1          1.0042    1.8801    0.0026 H         1 <0>         0.0780
     33 H2         -0.5455    1.8639   -0.8728 H         1 <0>         0.0767
     34 H3         -0.5286    1.8543    0.9071 H         1 <0>         0.0723
     35 H4         -0.0067   -0.1313   -2.1351 H         1 <0>         0.1341
     36 H5          0.0270   -2.6163   -2.1394 H         1 <0>         0.1366
     37 H6          0.0536   -3.8118    0.0361 H         1 <0>         0.1390
     38 H7         -0.4173   -6.3439    3.9393 H         1 <0>         0.0998
     39 H8          0.0234   -5.6784    5.5302 H         1 <0>         0.0832
     40 H9         -2.5410   -4.7156    4.8421 H         1 <0>         0.4068
     41 H10        -0.7606   -7.7507    5.6296 H         1 <0>         0.1319
     42 H11        -1.7672   -9.7049    6.7259 H         1 <0>         0.1322
     43 H12        -5.5365   -7.6579    6.8912 H         1 <0>         0.1321
     44 H13        -4.5171   -5.7052    5.8038 H         1 <0>         0.1309
     45 H14         2.9139   -1.3558    3.0085 H         1 <0>         0.1244
     46 H15         3.9737    0.8717    3.5618 H         1 <0>         0.1373
     47 H16         0.1079    1.7141    3.0428 H         1 <0>         0.1166
     48 H17        -0.8026   -0.0118    4.4754 H         1 <0>         0.0892
     49 H18         0.4922    0.2144    5.6772 H         1 <0>         0.0871
     50 H19         0.7583    4.2359    3.7321 H         1 <0>         0.0847
     51 H20         1.2897    4.3493    5.4356 H         1 <0>         0.1248
     52 H21         0.5622   -3.1063    5.5727 H         1 <0>         0.4258
@<TRIPOS>BOND
     1    1    2 1
     2    1   32 1
     3    1   33 1
     4    1   34 1
     5    2    7 ar
     6    2    3 ar
     7    3    4 ar
     8    3   35 1
     9    4    5 ar
    10    4   36 1
    11    5    6 ar
    12    5   37 1
    13    6    7 ar
    14    6    8 1
    15    8   12 1
    16    8    9 2
    17    9   10 1
    18    9   23 1
    19   10   11 1
    20   10   52 1
    21   11   12 2
    22   11   13 1
    23   13   14 1
    24   13   38 1
    25   13   39 1
    26   14   15 1
    27   14   40 1
    28   15   20 ar
    29   15   16 ar
    30   16   17 ar
    31   16   41 1
    32   17   18 ar
    33   17   42 1
    34   18   19 ar
    35   18   21 1
    36   19   20 ar
    37   19   43 1
    38   20   44 1
    39   21   22 3
    40   23   28 1
    41   23   24 2
    42   24   25 1
    43   24   45 1
    44   25   26 2
    45   25   46 1
    46   26   31 1
    47   26   27 1
    48   27   28 1
    49   27   29 1
    50   27   47 1
    51   28   48 1
    52   28   49 1
    53   29   30 1
    54   30   31 1
    55   30   50 1
    56   30   51 1
@<TRIPOS>MOLECULE
CHEMBL565846__3
   52    56     0     0     0
SMALL
USER_CHARGES

@<TRIPOS>ATOM
      1 C1         -0.1883    1.6471    0.2228 C.3       1 <0>        -0.1062
      2 C2         -0.2421    0.1425    0.1559 C.ar      1 <0>         0.1425
      3 C3         -0.4092   -0.4798   -1.0675 C.ar      1 <0>        -0.1700
      4 C4         -0.4580   -1.8666   -1.1273 C.ar      1 <0>        -0.0633
      5 C5         -0.3369   -2.5835    0.0486 C.ar      1 <0>        -0.1751
      6 C6         -0.1702   -1.8910    1.2514 C.ar      1 <0>         0.2032
      7 N1         -0.1238   -0.5613    1.2632 N.ar      1 <0>        -0.4550
      8 C7         -0.0394   -2.6387    2.5139 C.2       1 <0>         0.0332
      9 C8          0.6011   -2.2168    3.6728 C.2       1 <0>         0.1001
     10 N2          0.4812   -3.2085    4.5788 N.2       1 <0>        -0.4523
     11 C9         -0.1841   -4.1999    4.0561 C.2       1 <0>         0.2049
     12 N3         -0.5328   -3.8964    2.7876 N.pl3     1 <0>        -0.5466
     13 H1         -1.0358   -4.4606    2.1798 H         1 <0>         0.4240
     14 C10        -0.5185   -5.4882    4.7628 C.3       1 <0>         0.2087
     15 N4          0.6068   -6.4184    4.6410 N.pl3     1 <0>        -0.7341
     16 C11         0.5303   -7.6826    5.2181 C.ar      1 <0>         0.2477
     17 C12        -0.6182   -8.0636    5.9058 C.ar      1 <0>        -0.2020
     18 C13        -0.6972   -9.3131    6.4778 C.ar      1 <0>        -0.0170
     19 C14         0.3779  -10.1999    6.3673 C.ar      1 <0>        -0.0935
     20 C15         1.5301   -9.8140    5.6759 C.ar      1 <0>        -0.0179
     21 C16         1.6002   -8.5650    5.1014 C.ar      1 <0>        -0.1946
     22 C17         0.2994  -11.5005    6.9615 C.1       1 <0>         0.2585
     23 N5          0.2371  -12.5322    7.4329 N.1       1 <0>        -0.4309
     24 C18         1.2818   -0.9307    3.8734 C.2       1 <0>        -0.0365
     25 C19         2.3268   -0.6101    3.0858 C.2       1 <0>        -0.0680
     26 C20         2.9973    0.6860    3.2483 C.2       1 <0>        -0.1559
     27 C21         2.3552    1.6272    3.9511 C.2       1 <0>         0.0421
     28 C22         0.9407    1.4470    4.4895 C.3       1 <0>         0.0795
     29 C23         0.7905    0.0011    4.9513 C.3       1 <0>        -0.0584
     30 O1          0.9341    2.3424    5.6251 O.3       1 <0>        -0.3644
     31 C24         1.7260    3.4501    5.1313 C.3       1 <0>         0.2008
     32 O2          2.7560    2.8634    4.3144 O.3       1 <0>        -0.3116
     33 H2          0.8438    1.9791    0.1105 H         1 <0>         0.0824
     34 H3         -0.7948    2.0683   -0.5790 H         1 <0>         0.0776
     35 H4         -0.5751    1.9821    1.1853 H         1 <0>         0.0766
     36 H5         -0.5013    0.1077   -1.9690 H         1 <0>         0.1383
     37 H6         -0.5882   -2.3738   -2.0718 H         1 <0>         0.1389
     38 H7         -0.3709   -3.6629    0.0381 H         1 <0>         0.1286
     39 H8         -0.7098   -5.2855    5.8166 H         1 <0>         0.1017
     40 H9         -1.4062   -5.9307    4.3109 H         1 <0>         0.0833
     41 H10         1.4051   -6.1532    4.1581 H         1 <0>         0.4069
     42 H11        -1.4483   -7.3779    5.9910 H         1 <0>         0.1319
     43 H12        -1.5886   -9.6080    7.0116 H         1 <0>         0.1323
     44 H13         2.3624  -10.4967    5.5887 H         1 <0>         0.1324
     45 H14         2.4881   -8.2680    4.5630 H         1 <0>         0.1312
     46 H15         2.6714   -1.3062    2.3354 H         1 <0>         0.1188
     47 H16         3.9702    0.8726    2.8182 H         1 <0>         0.1353
     48 H17         0.1859    1.7116    3.7490 H         1 <0>         0.1090
     49 H18        -0.2589   -0.2065    5.1603 H         1 <0>         0.0862
     50 H19         1.3777   -0.1500    5.8572 H         1 <0>         0.0922
     51 H20         1.1063    4.1179    4.5328 H         1 <0>         0.0818
     52 H21         2.1711    3.9947    5.9640 H         1 <0>         0.1229
@<TRIPOS>BOND
     1    1    2 1
     2    1   33 1
     3    1   34 1
     4    1   35 1
     5    2    7 ar
     6    2    3 ar
     7    3    4 ar
     8    3   36 1
     9    4    5 ar
    10    4   37 1
    11    5    6 ar
    12    5   38 1
    13    6    7 ar
    14    6    8 1
    15    8   12 1
    16    8    9 2
    17    9   10 1
    18    9   24 1
    19   10   11 2
    20   11   12 1
    21   11   14 1
    22   12   13 1
    23   14   15 1
    24   14   39 1
    25   14   40 1
    26   15   16 1
    27   15   41 1
    28   16   21 ar
    29   16   17 ar
    30   17   18 ar
    31   17   42 1
    32   18   19 ar
    33   18   43 1
    34   19   20 ar
    35   19   22 1
    36   20   21 ar
    37   20   44 1
    38   21   45 1
    39   22   23 3
    40   24   29 1
    41   24   25 2
    42   25   26 1
    43   25   46 1
    44   26   27 2
    45   26   47 1
    46   27   32 1
    47   27   28 1
    48   28   29 1
    49   28   30 1
    50   28   48 1
    51   29   49 1
    52   29   50 1
    53   30   31 1
    54   31   32 1
    55   31   51 1
    56   31   52 1
@<TRIPOS>MOLECULE
CHEMBL126180
   46    50     0     0     0
SMALL
USER_CHARGES

@<TRIPOS>ATOM
      1 C1         -0.0167    1.3781    0.0096 C.ar      1 <0>        -0.1068
      2 C2          1.1709    2.0855    0.0021 C.ar      1 <0>        -0.1229
      3 C3          2.3773    1.4107   -0.0130 C.ar      1 <0>        -0.0823
      4 C4          2.3960    0.0285   -0.0201 C.ar      1 <0>        -0.1156
      5 C5          1.2084   -0.6789   -0.0117 C.ar      1 <0>        -0.0987
      6 C6          0.0021   -0.0041    0.0020 C.ar      1 <0>        -0.1235
      7 C7          3.7112   -0.7071   -0.0376 C.3       1 <0>         0.1746
      8 N1          4.1518   -0.9524    1.3379 N.pl3     1 <0>        -0.3583
      9 C8          4.4675   -2.1564    1.8496 C.2       1 <0>         0.0777
     10 C9          4.8299   -1.9807    3.1547 C.2       1 <0>        -0.1833
     11 C10         4.7166   -0.5477    3.4325 C.2       1 <0>         0.1332
     12 N2          4.3151    0.0291    2.3204 N.2       1 <0>        -0.2553
     13 C11         5.0059    0.1262    4.7205 C.ar      1 <0>         0.1945
     14 C12         5.3576    1.4751    4.7313 C.ar      1 <0>        -0.1402
     15 C13         5.6243    2.0905    5.9416 C.ar      1 <0>        -0.0757
     16 C14         5.5307    1.3365    7.1033 C.ar      1 <0>        -0.1642
     17 C15         5.1765    0.0029    7.0195 C.ar      1 <0>         0.1057
     18 N3          4.9227   -0.5579    5.8545 N.ar      1 <0>        -0.4520
     19 C16         5.2544   -3.0337    4.1034 C.ar      1 <0>         0.0722
     20 C17         6.4302   -3.7476    3.9043 C.ar      1 <0>        -0.1786
     21 C18         6.7996   -4.7291    4.8142 C.ar      1 <0>         0.1303
     22 N4          6.0685   -5.0088    5.8675 N.ar      1 <0>        -0.4811
     23 C19         4.9256   -4.3633    6.1231 C.ar      1 <0>         0.1308
     24 C20         4.4780   -3.3439    5.2489 C.ar      1 <0>        -0.0658
     25 C21         3.2824   -2.6677    5.5248 C.ar      1 <0>        -0.0404
     26 C22         2.5641   -2.9948    6.6356 C.ar      1 <0>        -0.1353
     27 C23         3.0036   -3.9937    7.5010 C.ar      1 <0>        -0.0946
     28 C24         4.1549   -4.6777    7.2563 C.ar      1 <0>        -0.1063
     29 H1         -0.9591    1.9053    0.0259 H         1 <0>         0.1241
     30 H2          1.1563    3.1654    0.0076 H         1 <0>         0.1249
     31 H3          3.3051    1.9634   -0.0196 H         1 <0>         0.1244
     32 H4          1.2231   -1.7588   -0.0176 H         1 <0>         0.1213
     33 H5         -0.9258   -0.5567    0.0082 H         1 <0>         0.1246
     34 H6          3.5884   -1.6586   -0.5549 H         1 <0>         0.1095
     35 H7          4.4573   -0.1052   -0.5563 H         1 <0>         0.0978
     36 H8          4.4388   -3.0976    1.3206 H         1 <0>         0.1828
     37 H9          5.4214    2.0318    3.8081 H         1 <0>         0.1380
     38 H10         5.8996    3.1341    5.9815 H         1 <0>         0.1383
     39 H11         5.7330    1.7875    8.0636 H         1 <0>         0.1376
     40 H12         5.1029   -0.5863    7.9217 H         1 <0>         0.1579
     41 H13         7.0527   -3.5403    3.0465 H         1 <0>         0.1326
     42 H14         7.7150   -5.2784    4.6503 H         1 <0>         0.1561
     43 H15         2.9322   -1.8912    4.8609 H         1 <0>         0.1174
     44 H16         1.6427   -2.4728    6.8477 H         1 <0>         0.1191
     45 H17         2.4173   -4.2356    8.3752 H         1 <0>         0.1248
     46 H18         4.4820   -5.4495    7.9372 H         1 <0>         0.1310
@<TRIPOS>BOND
     1    1    6 ar
     2    1    2 ar
     3    1   29 1
     4    2    3 ar
     5    2   30 1
     6    3    4 ar
     7    3   31 1
     8    4    5 ar
     9    4    7 1
    10    5    6 ar
    11    5   32 1
    12    6   33 1
    13    7    8 1
    14    7   34 1
    15    7   35 1
    16    8   12 1
    17    8    9 1
    18    9   10 2
    19    9   36 1
    20   10   11 1
    21   10   19 1
    22   11   12 2
    23   11   13 1
    24   13   18 ar
    25   13   14 ar
    26   14   15 ar
    27   14   37 1
    28   15   16 ar
    29   15   38 1
    30   16   17 ar
    31   16   39 1
    32   17   18 ar
    33   17   40 1
    34   19   24 ar
    35   19   20 ar
    36   20   21 ar
    37   20   41 1
    38   21   22 ar
    39   21   42 1
    40   22   23 ar
    41   23   28 ar
    42   23   24 ar
    43   24   25 ar
    44   25   26 ar
    45   25   43 1
    46   26   27 ar
    47   26   44 1
    48   27   28 ar
    49   27   45 1
    50   28   46 1
@<TRIPOS>MOLECULE
CHEMBL567505
   58    62     0     0     0
SMALL
USER_CHARGES

@<TRIPOS>ATOM
      1 C1         -0.0187    1.5258    0.0104 C.3       1 <0>        -0.1425
      2 C2          0.0021   -0.0041    0.0020 C.3       1 <0>        -0.0694
      3 C3          0.7074   -0.4901   -1.2379 C.ar      1 <0>         0.1403
      4 C4          1.7766   -1.3584   -1.1179 C.ar      1 <0>        -0.1728
      5 C5          2.4239   -1.8046   -2.2620 C.ar      1 <0>        -0.0740
      6 C6          1.9725   -1.3608   -3.4922 C.ar      1 <0>        -0.1500
      7 C7          0.8880   -0.4848   -3.5402 C.ar      1 <0>         0.2086
      8 N1          0.2934   -0.0859   -2.4215 N.ar      1 <0>        -0.4553
      9 C8          0.3929   -0.0001   -4.8480 C.2       1 <0>         0.0614
     10 C9         -0.8870    0.4486   -5.1238 C.2       1 <0>         0.0716
     11 N2         -0.8937    0.7956   -6.4539 N.pl3     1 <0>        -0.5500
     12 C10         0.3500    0.5552   -6.9402 C.2       1 <0>         0.1916
     13 N3          1.1068    0.0906   -5.9862 N.2       1 <0>        -0.4440
     14 C11         0.7899    0.7944   -8.3616 C.3       1 <0>         0.2116
     15 N4          1.4201    2.1130   -8.4624 N.pl3     1 <0>        -0.7341
     16 C12         1.9093    2.5588   -9.6869 C.ar      1 <0>         0.2479
     17 C13         1.7938    1.7528  -10.8157 C.ar      1 <0>        -0.2024
     18 C14         2.2765    2.1904  -12.0282 C.ar      1 <0>        -0.0169
     19 C15         2.8834    3.4462  -12.1250 C.ar      1 <0>        -0.0940
     20 C16         2.9978    4.2533  -10.9891 C.ar      1 <0>        -0.0177
     21 C17         2.5078    3.8118   -9.7809 C.ar      1 <0>        -0.1948
     22 C18         3.3871    3.9046  -13.3847 C.1       1 <0>         0.2587
     23 N5          3.7867    4.2682  -14.3840 N.1       1 <0>        -0.4311
     24 C19        -2.0181    0.5364   -4.1793 C.2       1 <0>         0.0213
     25 C20        -3.0151   -0.3623   -4.2339 C.2       1 <0>        -0.1360
     26 C21        -4.1575   -0.2974   -3.2597 C.3       1 <0>         0.0957
     27 C22        -4.4570    1.1414   -2.8615 C.3       1 <0>         0.1099
     28 C23        -3.1920    1.8881   -2.5421 C.2       1 <0>        -0.1224
     29 C24        -2.0570    1.6097   -3.1644 C.2       1 <0>        -0.0811
     30 N6         -5.3593    1.1823   -1.7166 N.2       1 <0>        -0.5109
     31 C25        -5.6047    0.1883   -0.9734 C.2       1 <0>         0.1645
     32 C26        -5.0039   -1.1723   -1.1799 C.3       1 <0>         0.0271
     33 N7         -3.8280   -1.0750   -2.0555 N.3       1 <0>        -0.6651
     34 H1          1.0039    1.9031    0.0027 H         1 <0>         0.0488
     35 H2         -0.5459    1.8868   -0.8726 H         1 <0>         0.0654
     36 H3         -0.5289    1.8773    0.9072 H         1 <0>         0.0559
     37 H4          0.5293   -0.3651    0.8851 H         1 <0>         0.0743
     38 H5         -1.0205   -0.3814    0.0098 H         1 <0>         0.0859
     39 H6          2.1054   -1.6864   -0.1429 H         1 <0>         0.1327
     40 H7          3.2615   -2.4829   -2.1933 H         1 <0>         0.1350
     41 H8          2.4532   -1.6877   -4.4024 H         1 <0>         0.1369
     42 H9          1.5055    0.0263   -8.6546 H         1 <0>         0.0999
     43 H10        -0.0766    0.7544   -9.0217 H         1 <0>         0.0827
     44 H11         1.4965    2.6755   -7.6759 H         1 <0>         0.4070
     45 H12         1.3252    0.7827  -10.7401 H         1 <0>         0.1316
     46 H13         2.1869    1.5644  -12.9036 H         1 <0>         0.1322
     47 H14         3.4660    5.2239  -11.0605 H         1 <0>         0.1323
     48 H15         2.5915    4.4367   -8.9041 H         1 <0>         0.1311
     49 H16        -2.9956   -1.1382   -4.9850 H         1 <0>         0.1158
     50 H17        -5.0493   -0.7176   -3.7247 H         1 <0>         0.0509
     51 H18        -4.9535    1.6377   -3.6954 H         1 <0>         0.0995
     52 H19        -3.2082    2.6626   -1.7895 H         1 <0>         0.1216
     53 H20        -1.1618    2.1684   -2.9343 H         1 <0>         0.1248
     54 H21        -4.7047   -1.5856   -0.2167 H         1 <0>         0.1036
     55 H22        -6.2833    0.3261   -0.1446 H         1 <0>         0.1549
     56 H23        -5.7433   -1.8283   -1.6393 H         1 <0>         0.0558
     57 H24        -3.4823   -1.9909   -2.2998 H         1 <0>         0.3506
     58 H25        -1.6480    1.1469   -6.9525 H         1 <0>         0.4252
@<TRIPOS>BOND
     1    1    2 1
     2    1   34 1
     3    1   35 1
     4    1   36 1
     5    2    3 1
     6    2   37 1
     7    2   38 1
     8    3    8 ar
     9    3    4 ar
    10    4    5 ar
    11    4   39 1
    12    5    6 ar
    13    5   40 1
    14    6    7 ar
    15    6   41 1
    16    7    8 ar
    17    7    9 1
    18    9   13 1
    19    9   10 2
    20   10   11 1
    21   10   24 1
    22   11   12 1
    23   11   58 1
    24   12   13 2
    25   12   14 1
    26   14   15 1
    27   14   42 1
    28   14   43 1
    29   15   16 1
    30   15   44 1
    31   16   21 ar
    32   16   17 ar
    33   17   18 ar
    34   17   45 1
    35   18   19 ar
    36   18   46 1
    37   19   20 ar
    38   19   22 1
    39   20   21 ar
    40   20   47 1
    41   21   48 1
    42   22   23 3
    43   24   29 1
    44   24   25 2
    45   25   26 1
    46   25   49 1
    47   26   33 1
    48   26   27 1
    49   26   50 1
    50   27   28 1
    51   27   51 1
    52   27   30 1
    53   28   29 2
    54   28   52 1
    55   29   53 1
    56   30   31 2
    57   31   32 1
    58   31   55 1
    59   32   33 1
    60   32   56 1
    61   32   54 1
    62   33   57 1
@<TRIPOS>MOLECULE
CHEMBL567505__1
   58    62     0     0     0
SMALL
USER_CHARGES

@<TRIPOS>ATOM
      1 C1         -0.2890    1.7747   -0.0510 C.3       1 <0>        -0.1443
      2 C2         -0.0935    0.2586    0.0124 C.3       1 <0>        -0.0733
      3 C3          0.6920   -0.1974   -1.1902 C.ar      1 <0>         0.1453
      4 C4          1.8504   -0.9308   -1.0098 C.ar      1 <0>        -0.1686
      5 C5          2.5721   -1.3502   -2.1193 C.ar      1 <0>        -0.0641
      6 C6          2.1034   -1.0170   -3.3772 C.ar      1 <0>        -0.1747
      7 C7          0.9260   -0.2738   -3.4872 C.ar      1 <0>         0.2015
      8 N1          0.2626    0.1037   -2.3985 N.ar      1 <0>        -0.4491
      9 C8          0.4121    0.0908   -4.8212 C.2       1 <0>         0.0362
     10 C9         -0.9026    0.3583   -5.1611 C.2       1 <0>         0.0992
     11 N2         -0.9265    0.6463   -6.4754 N.2       1 <0>        -0.4530
     12 C10         0.2817    0.5731   -6.9606 C.2       1 <0>         0.2036
     13 N3          1.1443    0.2392   -5.9773 N.pl3     1 <0>        -0.5459
     14 H1          2.1030    0.1229   -6.0691 H         1 <0>         0.4241
     15 C11         0.6581    0.8285   -8.3972 C.3       1 <0>         0.2095
     16 N4          0.4679   -0.3970   -9.1772 N.pl3     1 <0>        -0.7340
     17 C12         0.7523   -0.4060  -10.5397 C.ar      1 <0>         0.2476
     18 C13         1.2227    0.7485  -11.1584 C.ar      1 <0>        -0.2021
     19 C14         1.5049    0.7431  -12.5056 C.ar      1 <0>        -0.0169
     20 C15         1.3185   -0.4239  -13.2525 C.ar      1 <0>        -0.0933
     21 C16         0.8459   -1.5819  -12.6278 C.ar      1 <0>        -0.0178
     22 C17         0.5710   -1.5711  -11.2791 C.ar      1 <0>        -0.1945
     23 C18         1.6107   -0.4330  -14.6544 C.1       1 <0>         0.2584
     24 N5          1.8424   -0.4402  -15.7665 N.1       1 <0>        -0.4307
     25 C19        -2.0678    0.3320   -4.2474 C.2       1 <0>         0.0063
     26 C20        -2.8019    1.4382   -4.0611 C.2       1 <0>        -0.1085
     27 C21        -3.9716    1.4320   -3.1157 C.3       1 <0>         0.0722
     28 C22        -4.6391    0.0640   -3.0852 C.3       1 <0>         0.0893
     29 C23        -3.6212   -1.0357   -2.9831 C.2       1 <0>        -0.1356
     30 C24        -2.4292   -0.9145   -3.5426 C.2       1 <0>        -0.0814
     31 N6         -5.4417   -0.1122   -4.3050 N.3       1 <0>        -0.6681
     32 C25        -6.5579    0.8434   -4.3175 C.3       1 <0>         0.0272
     33 C26        -6.0517    2.2272   -4.0280 C.2       1 <0>         0.1270
     34 N7         -4.9263    2.4645   -3.5011 N.2       1 <0>        -0.5121
     35 H2          0.6837    2.2666   -0.0575 H         1 <0>         0.0509
     36 H3         -0.8329    2.0332   -0.9596 H         1 <0>         0.0667
     37 H4         -0.8571    2.1045    0.8188 H         1 <0>         0.0598
     38 H5          0.4504    0.0001    0.9210 H         1 <0>         0.0799
     39 H6         -1.0662   -0.2332    0.0189 H         1 <0>         0.0851
     40 H7          2.1909   -1.1750   -0.0144 H         1 <0>         0.1383
     41 H8          3.4798   -1.9237   -2.0027 H         1 <0>         0.1390
     42 H9          2.6404   -1.3268   -4.2616 H         1 <0>         0.1283
     43 H10         0.0271    1.6191   -8.8032 H         1 <0>         0.1011
     44 H11         1.7030    1.1343   -8.4502 H         1 <0>         0.0834
     45 H12         0.1438   -1.2021   -8.7441 H         1 <0>         0.4069
     46 H13         1.3661    1.6498  -10.5808 H         1 <0>         0.1317
     47 H14         1.8696    1.6395  -12.9852 H         1 <0>         0.1324
     48 H15         0.7008   -2.4851  -13.2019 H         1 <0>         0.1325
     49 H16         0.2104   -2.4666  -10.7949 H         1 <0>         0.1311
     50 H17        -2.5506    2.3428   -4.5949 H         1 <0>         0.1202
     51 H18        -3.6116    1.6670   -2.1141 H         1 <0>         0.1081
     52 H19        -5.3042    0.0130   -2.2231 H         1 <0>         0.0911
     53 H20        -3.8685   -1.9409   -2.4483 H         1 <0>         0.1221
     54 H21        -1.7192   -1.7260   -3.4804 H         1 <0>         0.1119
     55 H22        -4.8709   -0.0123   -5.1310 H         1 <0>         0.3470
     56 H23        -7.0345    0.8302   -5.2977 H         1 <0>         0.1016
     57 H24        -6.6829    3.0655   -4.2834 H         1 <0>         0.1519
     58 H25        -7.2858    0.5595   -3.5574 H         1 <0>         0.0996
@<TRIPOS>BOND
     1    1    2 1
     2    1   35 1
     3    1   36 1
     4    1   37 1
     5    2    3 1
     6    2   38 1
     7    2   39 1
     8    3    8 ar
     9    3    4 ar
    10    4    5 ar
    11    4   40 1
    12    5    6 ar
    13    5   41 1
    14    6    7 ar
    15    6   42 1
    16    7    8 ar
    17    7    9 1
    18    9   13 1
    19    9   10 2
    20   10   11 1
    21   10   25 1
    22   11   12 2
    23   12   13 1
    24   12   15 1
    25   13   14 1
    26   15   16 1
    27   15   43 1
    28   15   44 1
    29   16   17 1
    30   16   45 1
    31   17   22 ar
    32   17   18 ar
    33   18   19 ar
    34   18   46 1
    35   19   20 ar
    36   19   47 1
    37   20   21 ar
    38   20   23 1
    39   21   22 ar
    40   21   48 1
    41   22   49 1
    42   23   24 3
    43   25   30 1
    44   25   26 2
    45   26   27 1
    46   26   50 1
    47   27   28 1
    48   27   51 1
    49   27   34 1
    50   28   29 1
    51   28   31 1
    52   28   52 1
    53   29   30 2
    54   29   53 1
    55   30   54 1
    56   31   55 1
    57   31   32 1
    58   32   56 1
    59   32   58 1
    60   32   33 1
    61   33   57 1
    62   33   34 2
@<TRIPOS>MOLECULE
CHEMBL567505__2
   58    62     0     0     0
SMALL
USER_CHARGES

@<TRIPOS>ATOM
      1 C1         -0.2748    1.7281   -0.0394 C.3       1 <0>        -0.1437
      2 C2         -0.0915    0.2100    0.0113 C.3       1 <0>        -0.0743
      3 C3          0.6896   -0.2422   -1.1956 C.ar      1 <0>         0.1464
      4 C4          1.8421   -0.9865   -1.0220 C.ar      1 <0>        -0.1687
      5 C5          2.5598   -1.4024   -2.1354 C.ar      1 <0>        -0.0645
      6 C6          2.0933   -1.0549   -3.3902 C.ar      1 <0>        -0.1750
      7 C7          0.9219   -0.3012   -3.4933 C.ar      1 <0>         0.2020
      8 N1          0.2621    0.0724   -2.4011 N.ar      1 <0>        -0.4474
      9 C8          0.4103    0.0787   -4.8239 C.2       1 <0>         0.0381
     10 C9         -0.9026    0.3583   -5.1611 C.2       1 <0>         0.0947
     11 N2         -0.9247    0.6581   -6.4728 N.2       1 <0>        -0.4509
     12 C10         0.2828    0.5808   -6.9589 C.2       1 <0>         0.2018
     13 N3          1.1433    0.2322   -5.9788 N.pl3     1 <0>        -0.5464
     14 H1          2.1011    0.1101   -6.0718 H         1 <0>         0.4238
     15 C11         0.6608    0.8462   -8.3933 C.3       1 <0>         0.2098
     16 N4          0.4620   -0.3709   -9.1840 N.pl3     1 <0>        -0.7339
     17 C12         0.7460   -0.3698  -10.5466 C.ar      1 <0>         0.2478
     18 C13         1.2243    0.7868  -11.1552 C.ar      1 <0>        -0.2023
     19 C14         1.5063    0.7914  -12.5025 C.ar      1 <0>        -0.0169
     20 C15         1.3117   -0.3676  -13.2597 C.ar      1 <0>        -0.0936
     21 C16         0.8311   -1.5278  -12.6451 C.ar      1 <0>        -0.0178
     22 C17         0.5566   -1.5270  -11.2963 C.ar      1 <0>        -0.1946
     23 C18         1.6035   -0.3664  -14.6616 C.1       1 <0>         0.2586
     24 N5          1.8350   -0.3654  -15.7738 N.1       1 <0>        -0.4309
     25 C19        -2.0678    0.3320   -4.2474 C.2       1 <0>         0.0375
     26 C20        -2.8026    1.4380   -4.0605 C.2       1 <0>        -0.1322
     27 C21        -4.0029    1.4159   -3.1564 C.3       1 <0>         0.0960
     28 C22        -3.8050    0.4370   -2.0070 C.3       1 <0>         0.1133
     29 C23        -3.2470   -0.8689   -2.5003 C.2       1 <0>        -0.1126
     30 C24        -2.4299   -0.9141   -3.5421 C.2       1 <0>        -0.0962
     31 N6         -5.0619    0.2053   -1.3048 N.2       1 <0>        -0.5131
     32 C25        -6.1979    0.5182   -1.7655 C.2       1 <0>         0.1624
     33 C26        -6.4005    1.1821   -3.0971 C.3       1 <0>         0.0267
     34 N7         -5.1957    1.0273   -3.9242 N.3       1 <0>        -0.6717
     35 H2          0.7019    2.2121   -0.0423 H         1 <0>         0.0509
     36 H3         -0.8170    1.9986   -0.9454 H         1 <0>         0.0652
     37 H4         -0.8397    2.0552    0.8335 H         1 <0>         0.0598
     38 H5          0.4507   -0.0605    0.9173 H         1 <0>         0.0799
     39 H6         -1.0682   -0.2740    0.0141 H         1 <0>         0.0867
     40 H7          2.1811   -1.2418   -0.0289 H         1 <0>         0.1379
     41 H8          3.4629   -1.9842   -2.0241 H         1 <0>         0.1385
     42 H9          2.6272   -1.3616   -4.2774 H         1 <0>         0.1278
     43 H10         0.0352    1.6448   -8.7921 H         1 <0>         0.1010
     44 H11         1.7078    1.1453   -8.4438 H         1 <0>         0.0831
     45 H12         0.1323   -1.1776   -8.7580 H         1 <0>         0.4071
     46 H13         1.3741    1.6819  -10.5697 H         1 <0>         0.1316
     47 H14         1.8771    1.6894  -12.9742 H         1 <0>         0.1323
     48 H15         0.6797   -2.4249  -13.2271 H         1 <0>         0.1324
     49 H16         0.1898   -2.4243  -10.8199 H         1 <0>         0.1312
     50 H17        -2.5291    2.3534   -4.5641 H         1 <0>         0.1163
     51 H18        -4.1546    2.4108   -2.7379 H         1 <0>         0.0497
     52 H19        -3.1010    0.8708   -1.2969 H         1 <0>         0.1041
     53 H20        -3.5204   -1.7862   -2.0002 H         1 <0>         0.1167
     54 H21        -2.0253   -1.8592   -3.8729 H         1 <0>         0.1111
     55 H22        -7.2490    0.7232   -3.6047 H         1 <0>         0.1024
     56 H23        -7.0697    0.2960   -1.1681 H         1 <0>         0.1539
     57 H24        -6.6020    2.2426   -2.9457 H         1 <0>         0.0561
     58 H25        -5.2695    1.5652   -4.7746 H         1 <0>         0.3524
@<TRIPOS>BOND
     1    1    2 1
     2    1   35 1
     3    1   36 1
     4    1   37 1
     5    2    3 1
     6    2   38 1
     7    2   39 1
     8    3    8 ar
     9    3    4 ar
    10    4    5 ar
    11    4   40 1
    12    5    6 ar
    13    5   41 1
    14    6    7 ar
    15    6   42 1
    16    7    8 ar
    17    7    9 1
    18    9   13 1
    19    9   10 2
    20   10   11 1
    21   10   25 1
    22   11   12 2
    23   12   13 1
    24   12   15 1
    25   13   14 1
    26   15   16 1
    27   15   43 1
    28   15   44 1
    29   16   17 1
    30   16   45 1
    31   17   22 ar
    32   17   18 ar
    33   18   19 ar
    34   18   46 1
    35   19   20 ar
    36   19   47 1
    37   20   21 ar
    38   20   23 1
    39   21   22 ar
    40   21   48 1
    41   22   49 1
    42   23   24 3
    43   25   30 1
    44   25   26 2
    45   26   27 1
    46   26   50 1
    47   27   34 1
    48   27   28 1
    49   27   51 1
    50   28   29 1
    51   28   52 1
    52   28   31 1
    53   29   30 2
    54   29   53 1
    55   30   54 1
    56   31   32 2
    57   32   33 1
    58   32   56 1
    59   33   34 1
    60   33   57 1
    61   33   55 1
    62   34   58 1
@<TRIPOS>MOLECULE
CHEMBL567505__3
   58    62     0     0     0
SMALL
USER_CHARGES

@<TRIPOS>ATOM
      1 C1         -0.0187    1.5258    0.0104 C.3       1 <0>        -0.1454
      2 C2          0.0021   -0.0041    0.0020 C.3       1 <0>        -0.0698
      3 C3          0.7074   -0.4901   -1.2379 C.ar      1 <0>         0.1361
      4 C4          1.7766   -1.3584   -1.1179 C.ar      1 <0>        -0.1715
      5 C5          2.4239   -1.8046   -2.2620 C.ar      1 <0>        -0.0734
      6 C6          1.9725   -1.3608   -3.4922 C.ar      1 <0>        -0.1488
      7 C7          0.8880   -0.4848   -3.5402 C.ar      1 <0>         0.2094
      8 N1          0.2934   -0.0859   -2.4215 N.ar      1 <0>        -0.4576
      9 C8          0.3929   -0.0001   -4.8480 C.2       1 <0>         0.0624
     10 C9         -0.8870    0.4486   -5.1238 C.2       1 <0>         0.0759
     11 N2         -0.8937    0.7956   -6.4539 N.pl3     1 <0>        -0.5507
     12 C10         0.3500    0.5552   -6.9402 C.2       1 <0>         0.1915
     13 N3          1.1068    0.0906   -5.9862 N.2       1 <0>        -0.4439
     14 C11         0.7899    0.7944   -8.3616 C.3       1 <0>         0.2116
     15 N4          1.4201    2.1130   -8.4624 N.pl3     1 <0>        -0.7341
     16 C12         1.9093    2.5588   -9.6869 C.ar      1 <0>         0.2478
     17 C13         1.7938    1.7528  -10.8157 C.ar      1 <0>        -0.2023
     18 C14         2.2765    2.1904  -12.0282 C.ar      1 <0>        -0.0169
     19 C15         2.8834    3.4462  -12.1250 C.ar      1 <0>        -0.0939
     20 C16         2.9978    4.2533  -10.9891 C.ar      1 <0>        -0.0177
     21 C17         2.5078    3.8118   -9.7809 C.ar      1 <0>        -0.1949
     22 C18         3.3871    3.9046  -13.3847 C.1       1 <0>         0.2586
     23 N5          3.7867    4.2682  -14.3840 N.1       1 <0>        -0.4310
     24 C19        -2.0181    0.5364   -4.1793 C.2       1 <0>        -0.0058
     25 C20        -3.0225   -0.3682   -4.2335 C.2       1 <0>        -0.1210
     26 C21        -4.1412   -0.2385   -3.2386 C.3       1 <0>         0.0888
     27 C22        -3.5501    0.1735   -1.8870 C.3       1 <0>         0.1056
     28 C23        -2.7858    1.4540   -2.0582 C.2       1 <0>        -0.1114
     29 C24        -2.0580    1.6118   -3.1616 C.2       1 <0>        -0.0927
     30 N6         -4.6155    0.2669   -0.9034 N.2       1 <0>        -0.5009
     31 C25        -5.7109   -0.3632   -1.0377 C.2       1 <0>         0.1503
     32 C26        -6.0531   -1.2420   -2.2034 C.3       1 <0>         0.0285
     33 N7         -4.8731   -1.4939   -3.0470 N.3       1 <0>        -0.6728
     34 H1          1.0039    1.9031    0.0027 H         1 <0>         0.0495
     35 H2         -0.5459    1.8868   -0.8726 H         1 <0>         0.0688
     36 H3         -0.5289    1.8773    0.9072 H         1 <0>         0.0574
     37 H4          0.5293   -0.3651    0.8851 H         1 <0>         0.0765
     38 H5         -1.0205   -0.3814    0.0098 H         1 <0>         0.0798
     39 H6          2.1054   -1.6864   -0.1429 H         1 <0>         0.1334
     40 H7          3.2615   -2.4829   -2.1933 H         1 <0>         0.1358
     41 H8          2.4532   -1.6877   -4.4024 H         1 <0>         0.1376
     42 H9          1.5055    0.0263   -8.6546 H         1 <0>         0.1000
     43 H10        -0.0766    0.7544   -9.0217 H         1 <0>         0.0827
     44 H11         1.4965    2.6755   -7.6759 H         1 <0>         0.4069
     45 H12         1.3252    0.7827  -10.7401 H         1 <0>         0.1317
     46 H13         2.1869    1.5644  -12.9036 H         1 <0>         0.1322
     47 H14         3.4660    5.2239  -11.0605 H         1 <0>         0.1323
     48 H15         2.5915    4.4367   -8.9041 H         1 <0>         0.1310
     49 H16        -3.0207   -1.1587   -4.9693 H         1 <0>         0.1250
     50 H17        -4.8328    0.5352   -3.5720 H         1 <0>         0.0561
     51 H18        -2.8595   -0.6031   -1.5583 H         1 <0>         0.1051
     52 H19        -2.8226    2.2257   -1.3035 H         1 <0>         0.1311
     53 H20        -1.5013    2.5244   -3.3153 H         1 <0>         0.1198
     54 H21        -6.4369   -2.1927   -1.8332 H         1 <0>         0.1055
     55 H22        -6.4483   -0.2584   -0.2557 H         1 <0>         0.1556
     56 H23        -6.8233   -0.7564   -2.8026 H         1 <0>         0.0605
     57 H24        -5.1411   -1.8951   -3.9331 H         1 <0>         0.3511
     58 H25        -1.6480    1.1469   -6.9525 H         1 <0>         0.4248
@<TRIPOS>BOND
     1    1    2 1
     2    1   34 1
     3    1   35 1
     4    1   36 1
     5    2    3 1
     6    2   37 1
     7    2   38 1
     8    3    8 ar
     9    3    4 ar
    10    4    5 ar
    11    4   39 1
    12    5    6 ar
    13    5   40 1
    14    6    7 ar
    15    6   41 1
    16    7    8 ar
    17    7    9 1
    18    9   13 1
    19    9   10 2
    20   10   11 1
    21   10   24 1
    22   11   12 1
    23   11   58 1
    24   12   13 2
    25   12   14 1
    26   14   15 1
    27   14   42 1
    28   14   43 1
    29   15   16 1
    30   15   44 1
    31   16   21 ar
    32   16   17 ar
    33   17   18 ar
    34   17   45 1
    35   18   19 ar
    36   18   46 1
    37   19   20 ar
    38   19   22 1
    39   20   21 ar
    40   20   47 1
    41   21   48 1
    42   22   23 3
    43   24   29 1
    44   24   25 2
    45   25   26 1
    46   25   49 1
    47   26   33 1
    48   26   27 1
    49   26   50 1
    50   27   28 1
    51   27   51 1
    52   27   30 1
    53   28   29 2
    54   28   52 1
    55   29   53 1
    56   30   31 2
    57   31   32 1
    58   31   55 1
    59   32   33 1
    60   32   56 1
    61   32   54 1
    62   33   57 1
@<TRIPOS>MOLECULE
CHEMBL567505__4
   58    62     0     0     0
SMALL
USER_CHARGES

@<TRIPOS>ATOM
      1 C1         -0.3102    1.8651   -0.0746 C.3       1 <0>        -0.1439
      2 C2         -0.0950    0.3529    0.0136 C.3       1 <0>        -0.0734
      3 C3          0.6969   -0.1123   -1.1812 C.ar      1 <0>         0.1458
      4 C4          1.8647   -0.8275   -0.9886 C.ar      1 <0>        -0.1692
      5 C5          2.5924   -1.2554   -2.0909 C.ar      1 <0>        -0.0643
      6 C6          2.1201   -0.9489   -3.3542 C.ar      1 <0>        -0.1754
      7 C7          0.9332   -0.2229   -3.4766 C.ar      1 <0>         0.2022
      8 N1          0.2643    0.1635   -2.3944 N.ar      1 <0>        -0.4490
      9 C8          0.4153    0.1132   -4.8165 C.2       1 <0>         0.0345
     10 C9         -0.9026    0.3583   -5.1611 C.2       1 <0>         0.1034
     11 N2         -0.9296    0.6245   -6.4800 N.2       1 <0>        -0.4529
     12 C10         0.2797    0.5588   -6.9635 C.2       1 <0>         0.2028
     13 N3          1.1461    0.2521   -5.9747 N.pl3     1 <0>        -0.5462
     14 H1          2.1061    0.1466   -6.0643 H         1 <0>         0.4237
     15 C11         0.6535    0.7955   -8.4041 C.3       1 <0>         0.2095
     16 N4          0.4794   -0.4448   -9.1639 N.pl3     1 <0>        -0.7339
     17 C12         0.7645   -0.4724  -10.5260 C.ar      1 <0>         0.2478
     18 C13         1.2204    0.6778  -11.1634 C.ar      1 <0>        -0.2020
     19 C14         1.5033    0.6540  -12.5103 C.ar      1 <0>        -0.0167
     20 C15         1.3322   -0.5273  -13.2381 C.ar      1 <0>        -0.0937
     21 C16         0.8741   -1.6809  -12.5947 C.ar      1 <0>        -0.0179
     22 C17         0.5985   -1.6516  -11.2464 C.ar      1 <0>        -0.1950
     23 C18         1.6251   -0.5556  -14.6395 C.1       1 <0>         0.2586
     24 N5          1.8574   -0.5780  -15.7513 N.1       1 <0>        -0.4309
     25 C19        -2.0678    0.3320   -4.2474 C.2       1 <0>        -0.0087
     26 C20        -2.8088    1.4452   -4.0581 C.2       1 <0>        -0.0885
     27 C21        -3.9878    1.3569   -3.1317 C.3       1 <0>         0.1084
     28 C22        -4.6759    0.0039   -3.3368 C.3       1 <0>         0.0869
     29 C23        -3.6759   -1.0905   -3.0976 C.2       1 <0>        -0.1490
     30 C24        -2.4321   -0.9162   -3.5398 C.2       1 <0>        -0.0824
     31 N6         -5.8187   -0.0646   -2.4216 N.3       1 <0>        -0.6738
     32 C25        -6.8325    0.9180   -2.8393 C.3       1 <0>         0.0280
     33 C26        -6.2031    2.2327   -3.1913 C.2       1 <0>         0.1519
     34 N7         -4.9545    2.4236   -3.3300 N.2       1 <0>        -0.5020
     35 H2          0.6560    2.3694   -0.0887 H         1 <0>         0.0506
     36 H3         -0.8569    2.1017   -0.9874 H         1 <0>         0.0669
     37 H4         -0.8830    2.2015    0.7896 H         1 <0>         0.0597
     38 H5          0.4517    0.1163    0.9264 H         1 <0>         0.0796
     39 H6         -1.0612   -0.1514    0.0277 H         1 <0>         0.0854
     40 H7          2.2078   -1.0511    0.0107 H         1 <0>         0.1381
     41 H8          3.5074   -1.8151   -1.9647 H         1 <0>         0.1387
     42 H9          2.6615   -1.2659   -4.2332 H         1 <0>         0.1281
     43 H10         0.0126    1.5713   -8.8230 H         1 <0>         0.1013
     44 H11         1.6944    1.1138   -8.4617 H         1 <0>         0.0835
     45 H12         0.1654   -1.2469   -8.7178 H         1 <0>         0.4067
     46 H13         1.3520    1.5901  -10.6006 H         1 <0>         0.1320
     47 H14         1.8567    1.5470  -13.0043 H         1 <0>         0.1324
     48 H15         0.7409   -2.5952  -13.1540 H         1 <0>         0.1323
     49 H16         0.2491   -2.5437  -10.7478 H         1 <0>         0.1308
     50 H17        -2.5611    2.3703   -4.5573 H         1 <0>         0.1287
     51 H18        -3.6298    1.4141   -2.1038 H         1 <0>         0.1067
     52 H19        -5.0432   -0.0615   -4.3610 H         1 <0>         0.0529
     53 H20        -3.9596   -1.9971   -2.5839 H         1 <0>         0.1264
     54 H21        -1.6897   -1.6838   -3.3786 H         1 <0>         0.1135
     55 H22        -6.2065   -0.9957   -2.3963 H         1 <0>         0.3511
     56 H23        -7.3656    0.5333   -3.7086 H         1 <0>         0.0601
     57 H24        -6.8585    3.0785   -3.3379 H         1 <0>         0.1550
     58 H25        -7.5405    1.0689   -2.0244 H         1 <0>         0.1045
@<TRIPOS>BOND
     1    1    2 1
     2    1   35 1
     3    1   36 1
     4    1   37 1
     5    2    3 1
     6    2   38 1
     7    2   39 1
     8    3    8 ar
     9    3    4 ar
    10    4    5 ar
    11    4   40 1
    12    5    6 ar
    13    5   41 1
    14    6    7 ar
    15    6   42 1
    16    7    8 ar
    17    7    9 1
    18    9   13 1
    19    9   10 2
    20   10   11 1
    21   10   25 1
    22   11   12 2
    23   12   13 1
    24   12   15 1
    25   13   14 1
    26   15   16 1
    27   15   43 1
    28   15   44 1
    29   16   17 1
    30   16   45 1
    31   17   22 ar
    32   17   18 ar
    33   18   19 ar
    34   18   46 1
    35   19   20 ar
    36   19   47 1
    37   20   21 ar
    38   20   23 1
    39   21   22 ar
    40   21   48 1
    41   22   49 1
    42   23   24 3
    43   25   30 1
    44   25   26 2
    45   26   27 1
    46   26   50 1
    47   27   28 1
    48   27   51 1
    49   27   34 1
    50   28   29 1
    51   28   31 1
    52   28   52 1
    53   29   30 2
    54   29   53 1
    55   30   54 1
    56   31   55 1
    57   31   32 1
    58   32   56 1
    59   32   58 1
    60   32   33 1
    61   33   57 1
    62   33   34 2
@<TRIPOS>MOLECULE
CHEMBL567505__5
   58    62     0     0     0
SMALL
USER_CHARGES

@<TRIPOS>ATOM
      1 C1         -0.3104    1.8658   -0.0748 C.3       1 <0>        -0.1431
      2 C2         -0.0950    0.3536    0.0136 C.3       1 <0>        -0.0734
      3 C3          0.6970   -0.1116   -1.1811 C.ar      1 <0>         0.1447
      4 C4          1.8648   -0.8267   -0.9884 C.ar      1 <0>        -0.1688
      5 C5          2.5925   -1.2547   -2.0907 C.ar      1 <0>        -0.0638
      6 C6          2.1202   -0.9483   -3.3540 C.ar      1 <0>        -0.1746
      7 C7          0.9332   -0.2225   -3.4766 C.ar      1 <0>         0.2024
      8 N1          0.2643    0.1640   -2.3944 N.ar      1 <0>        -0.4499
      9 C8          0.4153    0.1134   -4.8165 C.2       1 <0>         0.0344
     10 C9         -0.9026    0.3583   -5.1611 C.2       1 <0>         0.1013
     11 N2         -0.9296    0.6243   -6.4800 N.2       1 <0>        -0.4512
     12 C10         0.2796    0.5587   -6.9635 C.2       1 <0>         0.2033
     13 N3          1.1461    0.2522   -5.9747 N.pl3     1 <0>        -0.5463
     14 H1          2.1062    0.1468   -6.0643 H         1 <0>         0.4238
     15 C11         0.6535    0.7953   -8.4041 C.3       1 <0>         0.2095
     16 N4          0.4795   -0.4452   -9.1638 N.pl3     1 <0>        -0.7341
     17 C12         0.7646   -0.4729  -10.5259 C.ar      1 <0>         0.2478
     18 C13         1.2204    0.6772  -11.1634 C.ar      1 <0>        -0.2021
     19 C14         1.5033    0.6533  -12.5103 C.ar      1 <0>        -0.0169
     20 C15         1.3323   -0.5281  -13.2380 C.ar      1 <0>        -0.0936
     21 C16         0.8743   -1.6817  -12.5944 C.ar      1 <0>        -0.0178
     22 C17         0.5987   -1.6523  -11.2461 C.ar      1 <0>        -0.1946
     23 C18         1.6252   -0.5565  -14.6394 C.1       1 <0>         0.2586
     24 N5          1.8576   -0.5791  -15.7512 N.1       1 <0>        -0.4310
     25 C19        -2.0678    0.3320   -4.2474 C.2       1 <0>         0.0067
     26 C20        -2.8084    1.4453   -4.0585 C.2       1 <0>        -0.1108
     27 C21        -3.9873    1.3584   -3.1308 C.3       1 <0>         0.0923
     28 C22        -4.6741    0.0047   -3.3361 C.3       1 <0>         0.1024
     29 C23        -3.6753   -1.0901   -3.0971 C.2       1 <0>        -0.1270
     30 C24        -2.4316   -0.9164   -3.5400 C.2       1 <0>        -0.0975
     31 N6         -5.8387   -0.0806   -2.4713 N.2       1 <0>        -0.5027
     32 C25        -6.4287    0.9569   -2.0350 C.2       1 <0>         0.1511
     33 C26        -6.0040    2.3658   -2.3232 C.3       1 <0>         0.0287
     34 N7         -4.9786    2.4092   -3.3788 N.3       1 <0>        -0.6730
     35 H2          0.6558    2.3702   -0.0890 H         1 <0>         0.0515
     36 H3         -0.8571    2.1023   -0.9876 H         1 <0>         0.0648
     37 H4         -0.8832    2.2023    0.7894 H         1 <0>         0.0589
     38 H5          0.4517    0.1172    0.9264 H         1 <0>         0.0803
     39 H6         -1.0612   -0.1508    0.0278 H         1 <0>         0.0843
     40 H7          2.2080   -1.0501    0.0109 H         1 <0>         0.1382
     41 H8          3.5076   -1.8143   -1.9644 H         1 <0>         0.1391
     42 H9          2.6616   -1.2654   -4.2330 H         1 <0>         0.1286
     43 H10         0.0125    1.5709   -8.8232 H         1 <0>         0.1014
     44 H11         1.6944    1.1136   -8.4618 H         1 <0>         0.0833
     45 H12         0.1655   -1.2472   -8.7176 H         1 <0>         0.4070
     46 H13         1.3519    1.5897  -10.6007 H         1 <0>         0.1318
     47 H14         1.8566    1.5463  -13.0044 H         1 <0>         0.1323
     48 H15         0.7412   -2.5960  -13.1536 H         1 <0>         0.1324
     49 H16         0.2494   -2.5443  -10.7474 H         1 <0>         0.1311
     50 H17        -2.5608    2.3699   -4.5586 H         1 <0>         0.1253
     51 H18        -3.6407    1.4254   -2.0996 H         1 <0>         0.0566
     52 H19        -5.0190   -0.0573   -4.3682 H         1 <0>         0.1033
     53 H20        -3.9594   -1.9965   -2.5832 H         1 <0>         0.1297
     54 H21        -1.6894   -1.6843   -3.3793 H         1 <0>         0.1140
     55 H22        -6.8718    2.9417   -2.6446 H         1 <0>         0.1045
     56 H23        -7.2992    0.8135   -1.4120 H         1 <0>         0.1546
     57 H24        -5.5991    2.8097   -1.4138 H         1 <0>         0.0599
     58 H25        -4.5404    3.3172   -3.4201 H         1 <0>         0.3518
@<TRIPOS>BOND
     1    1    2 1
     2    1   35 1
     3    1   36 1
     4    1   37 1
     5    2    3 1
     6    2   38 1
     7    2   39 1
     8    3    8 ar
     9    3    4 ar
    10    4    5 ar
    11    4   40 1
    12    5    6 ar
    13    5   41 1
    14    6    7 ar
    15    6   42 1
    16    7    8 ar
    17    7    9 1
    18    9   13 1
    19    9   10 2
    20   10   11 1
    21   10   25 1
    22   11   12 2
    23   12   13 1
    24   12   15 1
    25   13   14 1
    26   15   16 1
    27   15   43 1
    28   15   44 1
    29   16   17 1
    30   16   45 1
    31   17   22 ar
    32   17   18 ar
    33   18   19 ar
    34   18   46 1
    35   19   20 ar
    36   19   47 1
    37   20   21 ar
    38   20   23 1
    39   21   22 ar
    40   21   48 1
    41   22   49 1
    42   23   24 3
    43   25   30 1
    44   25   26 2
    45   26   27 1
    46   26   50 1
    47   27   34 1
    48   27   28 1
    49   27   51 1
    50   28   29 1
    51   28   52 1
    52   28   31 1
    53   29   30 2
    54   29   53 1
    55   30   54 1
    56   31   32 2
    57   32   33 1
    58   32   56 1
    59   33   34 1
    60   33   57 1
    61   33   55 1
    62   34   58 1
@<TRIPOS>MOLECULE
CHEMBL567505__6
   58    62     0     0     0
SMALL
USER_CHARGES

@<TRIPOS>ATOM
      1 C1         -0.0187    1.5258    0.0104 C.3       1 <0>        -0.1449
      2 C2          0.0021   -0.0041    0.0020 C.3       1 <0>        -0.0705
      3 C3          0.7074   -0.4901   -1.2379 C.ar      1 <0>         0.1352
      4 C4          1.7766   -1.3584   -1.1179 C.ar      1 <0>        -0.1714
      5 C5          2.4239   -1.8046   -2.2620 C.ar      1 <0>        -0.0725
      6 C6          1.9725   -1.3608   -3.4922 C.ar      1 <0>        -0.1480
      7 C7          0.8880   -0.4848   -3.5402 C.ar      1 <0>         0.2111
      8 N1          0.2934   -0.0859   -2.4215 N.ar      1 <0>        -0.4634
      9 C8          0.3929   -0.0001   -4.8480 C.2       1 <0>         0.0587
     10 C9         -0.8870    0.4486   -5.1238 C.2       1 <0>         0.0782
     11 N2         -0.8937    0.7956   -6.4539 N.pl3     1 <0>        -0.5492
     12 C10         0.3500    0.5552   -6.9402 C.2       1 <0>         0.1921
     13 N3          1.1068    0.0906   -5.9862 N.2       1 <0>        -0.4437
     14 C11         0.7899    0.7944   -8.3616 C.3       1 <0>         0.2115
     15 N4          1.4201    2.1130   -8.4624 N.pl3     1 <0>        -0.7342
     16 C12         1.9093    2.5588   -9.6869 C.ar      1 <0>         0.2478
     17 C13         1.7938    1.7528  -10.8157 C.ar      1 <0>        -0.2023
     18 C14         2.2765    2.1904  -12.0282 C.ar      1 <0>        -0.0169
     19 C15         2.8834    3.4462  -12.1250 C.ar      1 <0>        -0.0939
     20 C16         2.9978    4.2533  -10.9891 C.ar      1 <0>        -0.0178
     21 C17         2.5078    3.8118   -9.7809 C.ar      1 <0>        -0.1949
     22 C18         3.3871    3.9046  -13.3847 C.1       1 <0>         0.2586
     23 N5          3.7867    4.2682  -14.3840 N.1       1 <0>        -0.4311
     24 C19        -2.0181    0.5364   -4.1793 C.2       1 <0>        -0.0150
     25 C20        -3.0225   -0.3682   -4.2335 C.2       1 <0>        -0.1094
     26 C21        -4.1545   -0.2226   -3.2561 C.3       1 <0>         0.0917
     27 C22        -4.4697    1.2669   -3.0890 C.3       1 <0>         0.0612
     28 C23        -3.2291    1.9810   -2.6375 C.2       1 <0>        -0.1330
     29 C24        -2.0580    1.6118   -3.1616 C.2       1 <0>        -0.0837
     30 N6         -5.5881    1.4232   -2.1745 N.2       1 <0>        -0.5034
     31 C25        -6.4303    0.4921   -1.9779 C.2       1 <0>         0.1213
     32 C26        -6.3742   -0.8604   -2.6230 C.3       1 <0>         0.0282
     33 N7         -5.3771   -0.8948   -3.7056 N.3       1 <0>        -0.6661
     34 H1          1.0039    1.9031    0.0027 H         1 <0>         0.0517
     35 H2         -0.5459    1.8868   -0.8726 H         1 <0>         0.0653
     36 H3         -0.5289    1.8773    0.9072 H         1 <0>         0.0578
     37 H4          0.5293   -0.3651    0.8851 H         1 <0>         0.0780
     38 H5         -1.0205   -0.3814    0.0098 H         1 <0>         0.0797
     39 H6          2.1054   -1.6864   -0.1429 H         1 <0>         0.1340
     40 H7          3.2615   -2.4829   -2.1933 H         1 <0>         0.1365
     41 H8          2.4532   -1.6877   -4.4024 H         1 <0>         0.1386
     42 H9          1.5055    0.0263   -8.6546 H         1 <0>         0.1002
     43 H10        -0.0766    0.7544   -9.0217 H         1 <0>         0.0830
     44 H11         1.4965    2.6755   -7.6759 H         1 <0>         0.4069
     45 H12         1.3252    0.7827  -10.7401 H         1 <0>         0.1318
     46 H13         2.1869    1.5644  -12.9036 H         1 <0>         0.1323
     47 H14         3.4660    5.2239  -11.0605 H         1 <0>         0.1323
     48 H15         2.5915    4.4367   -8.9041 H         1 <0>         0.1309
     49 H16        -3.0114   -1.1698   -4.9572 H         1 <0>         0.1294
     50 H17        -3.8527   -0.6299   -2.2911 H         1 <0>         0.1000
     51 H18        -4.7708    1.6692   -4.0563 H         1 <0>         0.0904
     52 H19        -3.2816    2.7717   -1.9037 H         1 <0>         0.1301
     53 H20        -1.1449    2.0965   -2.8491 H         1 <0>         0.1316
     54 H21        -6.1104   -1.6039   -1.8709 H         1 <0>         0.1029
     55 H22        -7.2450    0.6890   -1.2968 H         1 <0>         0.1534
     56 H23        -7.3550   -1.1012   -3.0331 H         1 <0>         0.1035
     57 H24        -5.7386   -0.4651   -4.5439 H         1 <0>         0.3440
     58 H25        -1.6480    1.1469   -6.9525 H         1 <0>         0.4249
@<TRIPOS>BOND
     1    1    2 1
     2    1   34 1
     3    1   35 1
     4    1   36 1
     5    2    3 1
     6    2   37 1
     7    2   38 1
     8    3    8 ar
     9    3    4 ar
    10    4    5 ar
    11    4   39 1
    12    5    6 ar
    13    5   40 1
    14    6    7 ar
    15    6   41 1
    16    7    8 ar
    17    7    9 1
    18    9   13 1
    19    9   10 2
    20   10   11 1
    21   10   24 1
    22   11   12 1
    23   11   58 1
    24   12   13 2
    25   12   14 1
    26   14   15 1
    27   14   42 1
    28   14   43 1
    29   15   16 1
    30   15   44 1
    31   16   21 ar
    32   16   17 ar
    33   17   18 ar
    34   17   45 1
    35   18   19 ar
    36   18   46 1
    37   19   20 ar
    38   19   22 1
    39   20   21 ar
    40   20   47 1
    41   21   48 1
    42   22   23 3
    43   24   29 1
    44   24   25 2
    45   25   26 1
    46   25   49 1
    47   26   33 1
    48   26   27 1
    49   26   50 1
    50   27   28 1
    51   27   51 1
    52   27   30 1
    53   28   29 2
    54   28   52 1
    55   29   53 1
    56   30   31 2
    57   31   32 1
    58   31   55 1
    59   32   33 1
    60   32   56 1
    61   32   54 1
    62   33   57 1
@<TRIPOS>MOLECULE
CHEMBL567505__7
   58    62     0     0     0
SMALL
USER_CHARGES

@<TRIPOS>ATOM
      1 C1         -0.2924    1.7949   -0.0561 C.3       1 <0>        -0.1440
      2 C2         -0.0932    0.2794    0.0128 C.3       1 <0>        -0.0727
      3 C3          0.6934   -0.1789   -1.1881 C.ar      1 <0>         0.1452
      4 C4          1.8535   -0.9089   -1.0051 C.ar      1 <0>        -0.1686
      5 C5          2.5763   -1.3304   -2.1132 C.ar      1 <0>        -0.0639
      6 C6          2.1068   -1.0029   -3.3722 C.ar      1 <0>        -0.1747
      7 C7          0.9276   -0.2630   -3.4849 C.ar      1 <0>         0.2020
      8 N1          0.2632    0.1168   -2.3976 N.ar      1 <0>        -0.4493
      9 C8          0.4128    0.0955   -4.8202 C.2       1 <0>         0.0345
     10 C9         -0.9026    0.3583   -5.1611 C.2       1 <0>         0.1015
     11 N2         -0.9272    0.6417   -6.4764 N.2       1 <0>        -0.4507
     12 C10         0.2812    0.5700   -6.9612 C.2       1 <0>         0.2025
     13 N3          1.1447    0.2419   -5.9767 N.pl3     1 <0>        -0.5462
     14 H1          2.1037    0.1280   -6.0680 H         1 <0>         0.4238
     15 C11         0.6571    0.8215   -8.3987 C.3       1 <0>         0.2096
     16 N4          0.4703   -0.4072   -9.1744 N.pl3     1 <0>        -0.7341
     17 C12         0.7548   -0.4202  -10.5368 C.ar      1 <0>         0.2478
     18 C13         1.2221    0.7335  -11.1595 C.ar      1 <0>        -0.2020
     19 C14         1.5045    0.7242  -12.5067 C.ar      1 <0>        -0.0168
     20 C15         1.3213   -0.4459  -13.2496 C.ar      1 <0>        -0.0937
     21 C16         0.8518   -1.6030  -12.6209 C.ar      1 <0>        -0.0178
     22 C17         0.5768   -1.5883  -11.2722 C.ar      1 <0>        -0.1948
     23 C18         1.6136   -0.4591  -14.6514 C.1       1 <0>         0.2587
     24 N5          1.8455   -0.4696  -15.7634 N.1       1 <0>        -0.4309
     25 C19        -2.0678    0.3320   -4.2474 C.2       1 <0>        -0.0020
     26 C20        -2.3968   -0.8053   -3.5975 C.2       1 <0>        -0.0891
     27 C21        -3.5963   -0.7778   -2.6939 C.3       1 <0>         0.0676
     28 C22        -4.6880    0.0736   -3.3492 C.3       1 <0>         0.0890
     29 C23        -4.1392    1.4459   -3.6150 C.2       1 <0>        -0.1420
     30 C24        -2.8764    1.5538   -4.0352 C.2       1 <0>        -0.0911
     31 N6         -5.8461    0.0920   -2.4509 N.3       1 <0>        -0.6654
     32 C25        -6.4335   -1.2566   -2.3913 C.3       1 <0>         0.0278
     33 C26        -5.3715   -2.3071   -2.2602 C.2       1 <0>         0.1212
     34 N7         -4.1261   -2.0993   -2.4032 N.2       1 <0>        -0.5062
     35 H2          0.6791    2.2890   -0.0643 H         1 <0>         0.0515
     36 H3         -0.8369    2.0488   -0.9655 H         1 <0>         0.0670
     37 H4         -0.8613    2.1264    0.8126 H         1 <0>         0.0593
     38 H5          0.4513    0.0255    0.9223 H         1 <0>         0.0799
     39 H6         -1.0647   -0.2147    0.0210 H         1 <0>         0.0823
     40 H7          2.1947   -1.1487   -0.0089 H         1 <0>         0.1379
     41 H8          3.4853   -1.9013   -1.9945 H         1 <0>         0.1389
     42 H9          2.6445   -1.3145   -4.2555 H         1 <0>         0.1282
     43 H10         0.0240    1.6090   -8.8075 H         1 <0>         0.1015
     44 H11         1.7012    1.1300   -8.4527 H         1 <0>         0.0834
     45 H12         0.1483   -1.2117   -8.7385 H         1 <0>         0.4068
     46 H13         1.3630    1.6371  -10.5851 H         1 <0>         0.1319
     47 H14         1.8667    1.6199  -12.9894 H         1 <0>         0.1324
     48 H15         0.7092   -2.5086  -13.1919 H         1 <0>         0.1324
     49 H16         0.2185   -2.4831  -10.7850 H         1 <0>         0.1309
     50 H17        -1.8157   -1.7067   -3.7240 H         1 <0>         0.1178
     51 H18        -3.3120   -0.3141   -1.7493 H         1 <0>         0.0969
     52 H19        -4.9841   -0.3848   -4.2927 H         1 <0>         0.0936
     53 H20        -4.7494    2.3245   -3.4664 H         1 <0>         0.1315
     54 H21        -2.4471    2.5268   -4.2232 H         1 <0>         0.1218
     55 H22        -5.5850    0.4137   -1.5309 H         1 <0>         0.3440
     56 H23        -7.1030   -1.3168   -1.5333 H         1 <0>         0.1020
     57 H24        -5.6881   -3.3130   -2.0270 H         1 <0>         0.1513
     58 H25        -7.0036   -1.4383   -3.3023 H         1 <0>         0.1017
@<TRIPOS>BOND
     1    1    2 1
     2    1   35 1
     3    1   36 1
     4    1   37 1
     5    2    3 1
     6    2   38 1
     7    2   39 1
     8    3    8 ar
     9    3    4 ar
    10    4    5 ar
    11    4   40 1
    12    5    6 ar
    13    5   41 1
    14    6    7 ar
    15    6   42 1
    16    7    8 ar
    17    7    9 1
    18    9   13 1
    19    9   10 2
    20   10   11 1
    21   10   25 1
    22   11   12 2
    23   12   13 1
    24   12   15 1
    25   13   14 1
    26   15   16 1
    27   15   43 1
    28   15   44 1
    29   16   17 1
    30   16   45 1
    31   17   22 ar
    32   17   18 ar
    33   18   19 ar
    34   18   46 1
    35   19   20 ar
    36   19   47 1
    37   20   21 ar
    38   20   23 1
    39   21   22 ar
    40   21   48 1
    41   22   49 1
    42   23   24 3
    43   25   30 1
    44   25   26 2
    45   26   27 1
    46   26   50 1
    47   27   28 1
    48   27   51 1
    49   27   34 1
    50   28   29 1
    51   28   31 1
    52   28   52 1
    53   29   30 2
    54   29   53 1
    55   30   54 1
    56   31   55 1
    57   31   32 1
    58   32   56 1
    59   32   58 1
    60   32   33 1
    61   33   57 1
    62   33   34 2
@<TRIPOS>MOLECULE
CHEMBL567505__8
   58    62     0     0     0
SMALL
USER_CHARGES

@<TRIPOS>ATOM
      1 C1         -0.2926    1.7956   -0.0563 C.3       1 <0>        -0.1442
      2 C2         -0.0932    0.2802    0.0128 C.3       1 <0>        -0.0726
      3 C3          0.6934   -0.1782   -1.1881 C.ar      1 <0>         0.1462
      4 C4          1.8536   -0.9080   -1.0050 C.ar      1 <0>        -0.1684
      5 C5          2.5764   -1.3297   -2.1129 C.ar      1 <0>        -0.0641
      6 C6          2.1070   -1.0024   -3.3720 C.ar      1 <0>        -0.1748
      7 C7          0.9277   -0.2626   -3.4848 C.ar      1 <0>         0.2015
      8 N1          0.2633    0.1172   -2.3975 N.ar      1 <0>        -0.4487
      9 C8          0.4128    0.0957   -4.8201 C.2       1 <0>         0.0356
     10 C9         -0.9026    0.3583   -5.1611 C.2       1 <0>         0.0997
     11 N2         -0.9272    0.6415   -6.4765 N.2       1 <0>        -0.4508
     12 C10         0.2812    0.5699   -6.9612 C.2       1 <0>         0.2024
     13 N3          1.1447    0.2421   -5.9767 N.pl3     1 <0>        -0.5462
     14 H1          2.1037    0.1282   -6.0680 H         1 <0>         0.4239
     15 C11         0.6571    0.8212   -8.3988 C.3       1 <0>         0.2094
     16 N4          0.4704   -0.4076   -9.1743 N.pl3     1 <0>        -0.7340
     17 C12         0.7549   -0.4207  -10.5367 C.ar      1 <0>         0.2477
     18 C13         1.2221    0.7329  -11.1596 C.ar      1 <0>        -0.2020
     19 C14         1.5045    0.7235  -12.5068 C.ar      1 <0>        -0.0168
     20 C15         1.3215   -0.4468  -13.2495 C.ar      1 <0>        -0.0935
     21 C16         0.8520   -1.6038  -12.6207 C.ar      1 <0>        -0.0179
     22 C17         0.5770   -1.5890  -11.2720 C.ar      1 <0>        -0.1948
     23 C18         1.6137   -0.4601  -14.6513 C.1       1 <0>         0.2585
     24 N5          1.8456   -0.4707  -15.7633 N.1       1 <0>        -0.4308
     25 C19        -2.0678    0.3320   -4.2474 C.2       1 <0>         0.0041
     26 C20        -2.3964   -0.8054   -3.5978 C.2       1 <0>        -0.1049
     27 C21        -3.5961   -0.7789   -2.6935 C.3       1 <0>         0.0969
     28 C22        -4.6866    0.0729   -3.3502 C.3       1 <0>         0.0594
     29 C23        -4.1395    1.4452   -3.6162 C.2       1 <0>        -0.1275
     30 C24        -2.8761    1.5540   -4.0357 C.2       1 <0>        -0.0965
     31 N6         -5.8680    0.0789   -2.5043 N.2       1 <0>        -0.5030
     32 C25        -6.0985   -0.8479   -1.6659 C.2       1 <0>         0.1189
     33 C26        -5.2004   -2.0243   -1.4249 C.3       1 <0>         0.0291
     34 N7         -4.1505   -2.1143   -2.4530 N.3       1 <0>        -0.6668
     35 H2          0.6789    2.2899   -0.0646 H         1 <0>         0.0511
     36 H3         -0.8371    2.0493   -0.9658 H         1 <0>         0.0667
     37 H4         -0.8615    2.1272    0.8123 H         1 <0>         0.0592
     38 H5          0.4513    0.0265    0.9223 H         1 <0>         0.0797
     39 H6         -1.0647   -0.2141    0.0211 H         1 <0>         0.0836
     40 H7          2.1948   -1.1476   -0.0087 H         1 <0>         0.1379
     41 H8          3.4856   -1.9004   -1.9941 H         1 <0>         0.1387
     42 H9          2.6447   -1.3140   -4.2552 H         1 <0>         0.1279
     43 H10         0.0239    1.6086   -8.8076 H         1 <0>         0.1014
     44 H11         1.7011    1.1298   -8.4528 H         1 <0>         0.0833
     45 H12         0.1485   -1.2121   -8.7383 H         1 <0>         0.4067
     46 H13         1.3629    1.6367  -10.5853 H         1 <0>         0.1319
     47 H14         1.8666    1.6191  -12.9895 H         1 <0>         0.1324
     48 H15         0.7095   -2.5095  -13.1915 H         1 <0>         0.1324
     49 H16         0.2188   -2.4837  -10.7846 H         1 <0>         0.1310
     50 H17        -1.8149   -1.7066   -3.7248 H         1 <0>         0.1209
     51 H18        -3.3202   -0.3259   -1.7412 H         1 <0>         0.0973
     52 H19        -4.9592   -0.3841   -4.3015 H         1 <0>         0.0933
     53 H20        -4.7506    2.3233   -3.4682 H         1 <0>         0.1286
     54 H21        -2.4467    2.5271   -4.2234 H         1 <0>         0.1224
     55 H22        -4.7331   -1.9219   -0.4454 H         1 <0>         0.1010
     56 H23        -7.0065   -0.7835   -1.0848 H         1 <0>         0.1517
     57 H24        -5.7957   -2.9372   -1.4415 H         1 <0>         0.1015
     58 H25        -4.5127   -2.5143   -3.3056 H         1 <0>         0.3443
@<TRIPOS>BOND
     1    1    2 1
     2    1   35 1
     3    1   36 1
     4    1   37 1
     5    2    3 1
     6    2   38 1
     7    2   39 1
     8    3    8 ar
     9    3    4 ar
    10    4    5 ar
    11    4   40 1
    12    5    6 ar
    13    5   41 1
    14    6    7 ar
    15    6   42 1
    16    7    8 ar
    17    7    9 1
    18    9   13 1
    19    9   10 2
    20   10   11 1
    21   10   25 1
    22   11   12 2
    23   12   13 1
    24   12   15 1
    25   13   14 1
    26   15   16 1
    27   15   43 1
    28   15   44 1
    29   16   17 1
    30   16   45 1
    31   17   22 ar
    32   17   18 ar
    33   18   19 ar
    34   18   46 1
    35   19   20 ar
    36   19   47 1
    37   20   21 ar
    38   20   23 1
    39   21   22 ar
    40   21   48 1
    41   22   49 1
    42   23   24 3
    43   25   30 1
    44   25   26 2
    45   26   27 1
    46   26   50 1
    47   27   34 1
    48   27   28 1
    49   27   51 1
    50   28   29 1
    51   28   52 1
    52   28   31 1
    53   29   30 2
    54   29   53 1
    55   30   54 1
    56   31   32 2
    57   32   33 1
    58   32   56 1
    59   33   34 1
    60   33   57 1
    61   33   55 1
    62   34   58 1
@<TRIPOS>MOLECULE
CHEMBL567505__9
   58    62     0     0     0
SMALL
USER_CHARGES

@<TRIPOS>ATOM
      1 C1         -0.0187    1.5258    0.0104 C.3       1 <0>        -0.1445
      2 C2          0.0021   -0.0041    0.0020 C.3       1 <0>        -0.0696
      3 C3          0.7074   -0.4901   -1.2379 C.ar      1 <0>         0.1353
      4 C4          1.7766   -1.3584   -1.1179 C.ar      1 <0>        -0.1717
      5 C5          2.4239   -1.8046   -2.2620 C.ar      1 <0>        -0.0731
      6 C6          1.9725   -1.3608   -3.4922 C.ar      1 <0>        -0.1485
      7 C7          0.8880   -0.4848   -3.5402 C.ar      1 <0>         0.2097
      8 N1          0.2934   -0.0859   -2.4215 N.ar      1 <0>        -0.4596
      9 C8          0.3929   -0.0001   -4.8480 C.2       1 <0>         0.0602
     10 C9         -0.8870    0.4486   -5.1238 C.2       1 <0>         0.0747
     11 N2         -0.8937    0.7956   -6.4539 N.pl3     1 <0>        -0.5483
     12 C10         0.3500    0.5552   -6.9402 C.2       1 <0>         0.1924
     13 N3          1.1068    0.0906   -5.9862 N.2       1 <0>        -0.4445
     14 C11         0.7899    0.7944   -8.3616 C.3       1 <0>         0.2113
     15 N4          1.4201    2.1130   -8.4624 N.pl3     1 <0>        -0.7341
     16 C12         1.9093    2.5588   -9.6869 C.ar      1 <0>         0.2479
     17 C13         1.7938    1.7528  -10.8157 C.ar      1 <0>        -0.2021
     18 C14         2.2765    2.1904  -12.0282 C.ar      1 <0>        -0.0168
     19 C15         2.8834    3.4462  -12.1250 C.ar      1 <0>        -0.0939
     20 C16         2.9978    4.2533  -10.9891 C.ar      1 <0>        -0.0178
     21 C17         2.5078    3.8118   -9.7809 C.ar      1 <0>        -0.1950
     22 C18         3.3871    3.9046  -13.3847 C.1       1 <0>         0.2586
     23 N5          3.7867    4.2682  -14.3840 N.1       1 <0>        -0.4311
     24 C19        -2.0181    0.5364   -4.1793 C.2       1 <0>        -0.0049
     25 C20        -3.0151   -0.3623   -4.2339 C.2       1 <0>        -0.1064
     26 C21        -4.1837   -0.2661   -3.2941 C.3       1 <0>         0.0914
     27 C22        -3.7606    0.3131   -1.9510 C.3       1 <0>         0.0691
     28 C23        -2.8809    1.5181   -2.1353 C.2       1 <0>        -0.1341
     29 C24        -2.0570    1.6097   -3.1644 C.2       1 <0>        -0.0759
     30 N6         -4.9277    0.6690   -1.1523 N.2       1 <0>        -0.5098
     31 C25        -6.0987    0.7758   -1.6193 C.2       1 <0>         0.1247
     32 C26        -6.4432    0.5385   -3.0614 C.3       1 <0>         0.0275
     33 N7         -5.2261    0.5879   -3.8835 N.3       1 <0>        -0.6670
     34 H1          1.0039    1.9031    0.0027 H         1 <0>         0.0500
     35 H2         -0.5459    1.8868   -0.8726 H         1 <0>         0.0671
     36 H3         -0.5289    1.8773    0.9072 H         1 <0>         0.0571
     37 H4          0.5293   -0.3651    0.8851 H         1 <0>         0.0770
     38 H5         -1.0205   -0.3814    0.0098 H         1 <0>         0.0798
     39 H6          2.1054   -1.6864   -0.1429 H         1 <0>         0.1336
     40 H7          3.2615   -2.4829   -2.1933 H         1 <0>         0.1361
     41 H8          2.4532   -1.6877   -4.4024 H         1 <0>         0.1382
     42 H9          1.5055    0.0263   -8.6546 H         1 <0>         0.1000
     43 H10        -0.0766    0.7544   -9.0217 H         1 <0>         0.0834
     44 H11         1.4965    2.6755   -7.6759 H         1 <0>         0.4067
     45 H12         1.3252    0.7827  -10.7401 H         1 <0>         0.1318
     46 H13         2.1869    1.5644  -12.9036 H         1 <0>         0.1323
     47 H14         3.4660    5.2239  -11.0605 H         1 <0>         0.1322
     48 H15         2.5915    4.4367   -8.9041 H         1 <0>         0.1308
     49 H16        -2.9765   -1.1609   -4.9601 H         1 <0>         0.1212
     50 H17        -4.5907   -1.2631   -3.1250 H         1 <0>         0.0940
     51 H18        -3.2014   -0.4462   -1.4045 H         1 <0>         0.1061
     52 H19        -2.9203    2.3198   -1.4127 H         1 <0>         0.1223
     53 H20        -1.4148    2.4722   -3.2653 H         1 <0>         0.1195
     54 H21        -6.9107   -0.4407   -3.1653 H         1 <0>         0.1005
     55 H22        -6.8943    1.0527   -0.9434 H         1 <0>         0.1526
     56 H23        -7.1387    1.3072   -3.3985 H         1 <0>         0.1028
     57 H24        -4.8992    1.5366   -3.9894 H         1 <0>         0.3450
     58 H25        -1.6480    1.1469   -6.9525 H         1 <0>         0.4260
@<TRIPOS>BOND
     1    1    2 1
     2    1   34 1
     3    1   35 1
     4    1   36 1
     5    2    3 1
     6    2   37 1
     7    2   38 1
     8    3    8 ar
     9    3    4 ar
    10    4    5 ar
    11    4   39 1
    12    5    6 ar
    13    5   40 1
    14    6    7 ar
    15    6   41 1
    16    7    8 ar
    17    7    9 1
    18    9   13 1
    19    9   10 2
    20   10   11 1
    21   10   24 1
    22   11   12 1
    23   11   58 1
    24   12   13 2
    25   12   14 1
    26   14   15 1
    27   14   42 1
    28   14   43 1
    29   15   16 1
    30   15   44 1
    31   16   21 ar
    32   16   17 ar
    33   17   18 ar
    34   17   45 1
    35   18   19 ar
    36   18   46 1
    37   19   20 ar
    38   19   22 1
    39   20   21 ar
    40   20   47 1
    41   21   48 1
    42   22   23 3
    43   24   29 1
    44   24   25 2
    45   25   26 1
    46   25   49 1
    47   26   33 1
    48   26   27 1
    49   26   50 1
    50   27   28 1
    51   27   51 1
    52   27   30 1
    53   28   29 2
    54   28   52 1
    55   29   53 1
    56   30   31 2
    57   31   32 1
    58   31   55 1
    59   32   33 1
    60   32   56 1
    61   32   54 1
    62   33   57 1
@<TRIPOS>MOLECULE
CHEMBL567505__10
   58    62     0     0     0
SMALL
USER_CHARGES

@<TRIPOS>ATOM
      1 C1         -0.2946    1.8056   -0.0588 C.3       1 <0>        -0.1440
      2 C2         -0.0932    0.2906    0.0130 C.3       1 <0>        -0.0734
      3 C3          0.6940   -0.1689   -1.1871 C.ar      1 <0>         0.1459
      4 C4          1.8552   -0.8968   -1.0026 C.ar      1 <0>        -0.1691
      5 C5          2.5786   -1.3195   -2.1098 C.ar      1 <0>        -0.0640
      6 C6          2.1087   -0.9951   -3.3695 C.ar      1 <0>        -0.1755
      7 C7          0.9285   -0.2570   -3.4836 C.ar      1 <0>         0.2029
      8 N1          0.2635    0.1238   -2.3971 N.ar      1 <0>        -0.4496
      9 C8          0.4132    0.0982   -4.8196 C.2       1 <0>         0.0318
     10 C9         -0.9026    0.3583   -5.1611 C.2       1 <0>         0.1038
     11 N2         -0.9275    0.6391   -6.4770 N.2       1 <0>        -0.4493
     12 C10         0.2810    0.5684   -6.9616 C.2       1 <0>         0.2009
     13 N3          1.1449    0.2435   -5.9764 N.pl3     1 <0>        -0.5467
     14 H1          2.1040    0.1307   -6.0675 H         1 <0>         0.4233
     15 C11         0.6566    0.8176   -8.3996 C.3       1 <0>         0.2099
     16 N4          0.4716   -0.4128   -9.1729 N.pl3     1 <0>        -0.7336
     17 C12         0.7562   -0.4279  -10.5353 C.ar      1 <0>         0.2483
     18 C13         1.2218    0.7252  -11.1601 C.ar      1 <0>        -0.2023
     19 C14         1.5043    0.7138  -12.5073 C.ar      1 <0>        -0.0168
     20 C15         1.3229   -0.4580  -13.2480 C.ar      1 <0>        -0.0943
     21 C16         0.8550   -1.6146  -12.6171 C.ar      1 <0>        -0.0178
     22 C17         0.5799   -1.5977  -11.2685 C.ar      1 <0>        -0.1949
     23 C18         1.6153   -0.4734  -14.6497 C.1       1 <0>         0.2589
     24 N5          1.8472   -0.4856  -15.7617 N.1       1 <0>        -0.4315
     25 C19        -2.0678    0.3320   -4.2474 C.2       1 <0>        -0.0009
     26 C20        -2.3925   -0.7980   -3.6034 C.2       1 <0>        -0.0786
     27 C21        -3.5563   -0.8307   -2.6514 C.3       1 <0>         0.1175
     28 C22        -4.6502    0.1302   -3.0963 C.3       1 <0>         0.0924
     29 C23        -4.0773    1.4609   -3.4923 C.2       1 <0>        -0.1670
     30 C24        -2.8729    1.5523   -4.0374 C.2       1 <0>        -0.0582
     31 N6         -5.3791   -0.4557   -4.2315 N.3       1 <0>        -0.6726
     32 C25        -6.0996   -1.6618   -3.8008 C.3       1 <0>         0.0268
     33 C26        -5.1735   -2.5693   -3.0432 C.2       1 <0>         0.1643
     34 N7         -4.0735   -2.1900   -2.5467 N.2       1 <0>        -0.5139
     35 H2          0.6762    2.3012   -0.0680 H         1 <0>         0.0509
     36 H3         -0.8395    2.0570   -0.9688 H         1 <0>         0.0671
     37 H4         -0.8640    2.1380    0.8092 H         1 <0>         0.0591
     38 H5          0.4516    0.0393    0.9230 H         1 <0>         0.0798
     39 H6         -1.0640   -0.2049    0.0222 H         1 <0>         0.0844
     40 H7          2.1967   -1.1342   -0.0059 H         1 <0>         0.1378
     41 H8          3.4885   -1.8889   -1.9900 H         1 <0>         0.1385
     42 H9          2.6469   -1.3076   -4.2522 H         1 <0>         0.1278
     43 H10         0.0223    1.6034   -8.8098 H         1 <0>         0.1011
     44 H11         1.7002    1.1276   -8.4540 H         1 <0>         0.0829
     45 H12         0.1508   -1.2170   -8.7355 H         1 <0>         0.4070
     46 H13         1.3614    1.6302  -10.5874 H         1 <0>         0.1318
     47 H14         1.8652    1.6091  -12.9916 H         1 <0>         0.1322
     48 H15         0.7138   -2.5215  -13.1863 H         1 <0>         0.1322
     49 H16         0.2230   -2.4921  -10.7795 H         1 <0>         0.1310
     50 H17        -1.8124   -1.6937   -3.7696 H         1 <0>         0.1099
     51 H18        -3.2075   -0.5290   -1.6637 H         1 <0>         0.1037
     52 H19        -5.3505    0.2760   -2.2738 H         1 <0>         0.0485
     53 H20        -4.6543    2.3586   -3.3263 H         1 <0>         0.1188
     54 H21        -2.4821    2.5153   -4.3312 H         1 <0>         0.1181
     55 H22        -6.0110    0.2160   -4.6410 H         1 <0>         0.3521
     56 H23        -6.9320   -1.3758   -3.1579 H         1 <0>         0.0565
     57 H24        -5.4623   -3.6021   -2.9153 H         1 <0>         0.1541
     58 H25        -6.4822   -2.1867   -4.6762 H         1 <0>         0.1023
@<TRIPOS>BOND
     1    1    2 1
     2    1   35 1
     3    1   36 1
     4    1   37 1
     5    2    3 1
     6    2   38 1
     7    2   39 1
     8    3    8 ar
     9    3    4 ar
    10    4    5 ar
    11    4   40 1
    12    5    6 ar
    13    5   41 1
    14    6    7 ar
    15    6   42 1
    16    7    8 ar
    17    7    9 1
    18    9   13 1
    19    9   10 2
    20   10   11 1
    21   10   25 1
    22   11   12 2
    23   12   13 1
    24   12   15 1
    25   13   14 1
    26   15   16 1
    27   15   43 1
    28   15   44 1
    29   16   17 1
    30   16   45 1
    31   17   22 ar
    32   17   18 ar
    33   18   19 ar
    34   18   46 1
    35   19   20 ar
    36   19   47 1
    37   20   21 ar
    38   20   23 1
    39   21   22 ar
    40   21   48 1
    41   22   49 1
    42   23   24 3
    43   25   30 1
    44   25   26 2
    45   26   27 1
    46   26   50 1
    47   27   28 1
    48   27   51 1
    49   27   34 1
    50   28   29 1
    51   28   31 1
    52   28   52 1
    53   29   30 2
    54   29   53 1
    55   30   54 1
    56   31   55 1
    57   31   32 1
    58   32   56 1
    59   32   58 1
    60   32   33 1
    61   33   57 1
    62   33   34 2
@<TRIPOS>MOLECULE
CHEMBL567505__11
   58    62     0     0     0
SMALL
USER_CHARGES

@<TRIPOS>ATOM
      1 C1         -0.2900    1.7987   -0.0569 C.3       1 <0>        -0.1447
      2 C2         -0.0919    0.2832    0.0129 C.3       1 <0>        -0.0729
      3 C3          0.6941   -0.1764   -1.1880 C.ar      1 <0>         0.1445
      4 C4          1.8538   -0.9071   -1.0048 C.ar      1 <0>        -0.1686
      5 C5          2.5760   -1.3299   -2.1127 C.ar      1 <0>        -0.0639
      6 C6          2.1065   -1.0028   -3.3718 C.ar      1 <0>        -0.1745
      7 C7          0.9277   -0.2621   -3.4847 C.ar      1 <0>         0.2017
      8 N1          0.2639    0.1188   -2.3975 N.ar      1 <0>        -0.4493
      9 C8          0.4129    0.0959   -4.8201 C.2       1 <0>         0.0345
     10 C9         -0.9026    0.3583   -5.1611 C.2       1 <0>         0.0998
     11 N2         -0.9272    0.6413   -6.4765 N.2       1 <0>        -0.4512
     12 C10         0.2812    0.5698   -6.9613 C.2       1 <0>         0.2034
     13 N3          1.1447    0.2422   -5.9767 N.pl3     1 <0>        -0.5459
     14 H1          2.1037    0.1284   -6.0679 H         1 <0>         0.4240
     15 C11         0.6570    0.8209   -8.3989 C.3       1 <0>         0.2095
     16 N4          0.4705   -0.4080   -9.1742 N.pl3     1 <0>        -0.7340
     17 C12         0.7550   -0.4213  -10.5366 C.ar      1 <0>         0.2477
     18 C13         1.2221    0.7323  -11.1596 C.ar      1 <0>        -0.2022
     19 C14         1.5045    0.7227  -12.5068 C.ar      1 <0>        -0.0169
     20 C15         1.3216   -0.4477  -13.2494 C.ar      1 <0>        -0.0936
     21 C16         0.8522   -1.6047  -12.6204 C.ar      1 <0>        -0.0178
     22 C17         0.5772   -1.5897  -11.2717 C.ar      1 <0>        -0.1946
     23 C18         1.6139   -0.4612  -14.6512 C.1       1 <0>         0.2586
     24 N5          1.8457   -0.4719  -15.7632 N.1       1 <0>        -0.4309
     25 C19        -2.0678    0.3320   -4.2474 C.2       1 <0>         0.0126
     26 C20        -2.3933   -0.7979   -3.6028 C.2       1 <0>        -0.0989
     27 C21        -3.5893   -0.8434   -2.6941 C.3       1 <0>         0.0967
     28 C22        -3.8173    0.5031   -2.0207 C.3       1 <0>         0.0691
     29 C23        -3.7043    1.6280   -3.0115 C.2       1 <0>        -0.1421
     30 C24        -2.8735    1.5518   -4.0369 C.2       1 <0>        -0.0920
     31 N6         -5.1237    0.5416   -1.3739 N.2       1 <0>        -0.5118
     32 C25        -6.0501   -0.2896   -1.6005 C.2       1 <0>         0.1244
     33 C26        -5.9213   -1.4362   -2.5615 C.3       1 <0>         0.0274
     34 N7         -4.7866   -1.2077   -3.4669 N.3       1 <0>        -0.6680
     35 H2          0.6818    2.2922   -0.0657 H         1 <0>         0.0514
     36 H3         -0.8346    2.0525   -0.9664 H         1 <0>         0.0672
     37 H4         -0.8585    2.1312    0.8117 H         1 <0>         0.0603
     38 H5          0.4527    0.0295    0.9224 H         1 <0>         0.0803
     39 H6         -1.0637   -0.2103    0.0217 H         1 <0>         0.0821
     40 H7          2.1950   -1.1465   -0.0084 H         1 <0>         0.1380
     41 H8          3.4847   -1.9013   -1.9938 H         1 <0>         0.1389
     42 H9          2.6437   -1.3154   -4.2550 H         1 <0>         0.1283
     43 H10         0.0237    1.6082   -8.8078 H         1 <0>         0.1014
     44 H11         1.7010    1.1296   -8.4529 H         1 <0>         0.0832
     45 H12         0.1487   -1.2125   -8.7381 H         1 <0>         0.4070
     46 H13         1.3628    1.6361  -10.5855 H         1 <0>         0.1317
     47 H14         1.8665    1.6183  -12.9897 H         1 <0>         0.1323
     48 H15         0.7099   -2.5105  -13.1911 H         1 <0>         0.1324
     49 H16         0.2192   -2.4844  -10.7842 H         1 <0>         0.1312
     50 H17        -1.7904   -1.6836   -3.7384 H         1 <0>         0.1128
     51 H18        -3.4221   -1.5911   -1.9188 H         1 <0>         0.0897
     52 H19        -3.0590    0.6402   -1.2497 H         1 <0>         0.1081
     53 H20        -4.3081    2.5138   -2.8808 H         1 <0>         0.1215
     54 H21        -2.7880    2.3809   -4.7235 H         1 <0>         0.1225
     55 H22        -5.7596   -2.3589   -2.0041 H         1 <0>         0.0989
     56 H23        -6.9850   -0.1680   -1.0735 H         1 <0>         0.1514
     57 H24        -6.8377   -1.5238   -3.1451 H         1 <0>         0.1018
     58 H25        -5.0058   -0.4982   -4.1499 H         1 <0>         0.3471
@<TRIPOS>BOND
     1    1    2 1
     2    1   35 1
     3    1   36 1
     4    1   37 1
     5    2    3 1
     6    2   38 1
     7    2   39 1
     8    3    8 ar
     9    3    4 ar
    10    4    5 ar
    11    4   40 1
    12    5    6 ar
    13    5   41 1
    14    6    7 ar
    15    6   42 1
    16    7    8 ar
    17    7    9 1
    18    9   13 1
    19    9   10 2
    20   10   11 1
    21   10   25 1
    22   11   12 2
    23   12   13 1
    24   12   15 1
    25   13   14 1
    26   15   16 1
    27   15   43 1
    28   15   44 1
    29   16   17 1
    30   16   45 1
    31   17   22 ar
    32   17   18 ar
    33   18   19 ar
    34   18   46 1
    35   19   20 ar
    36   19   47 1
    37   20   21 ar
    38   20   23 1
    39   21   22 ar
    40   21   48 1
    41   22   49 1
    42   23   24 3
    43   25   30 1
    44   25   26 2
    45   26   27 1
    46   26   50 1
    47   27   34 1
    48   27   28 1
    49   27   51 1
    50   28   29 1
    51   28   52 1
    52   28   31 1
    53   29   30 2
    54   29   53 1
    55   30   54 1
    56   31   32 2
    57   32   33 1
    58   32   56 1
    59   33   34 1
    60   33   57 1
    61   33   55 1
    62   34   58 1
@<TRIPOS>MOLECULE
CHEMBL492634
   52    56     0     0     0
SMALL
USER_CHARGES

@<TRIPOS>ATOM
      1 C1         -0.0184    1.5028    0.0103 C.3       1 <0>        -0.1074
      2 C2          0.0021   -0.0041    0.0020 C.ar      1 <0>         0.1426
      3 C3          0.0055   -0.6792   -1.2049 C.ar      1 <0>        -0.1702
      4 C4          0.0244   -2.0675   -1.2099 C.ar      1 <0>        -0.0629
      5 C5          0.0392   -2.7326    0.0026 C.ar      1 <0>        -0.1745
      6 C6          0.0347   -1.9884    1.1844 C.ar      1 <0>         0.2016
      7 N1          0.0218   -0.6595    1.1444 N.ar      1 <0>        -0.4602
      8 C7          0.0503   -2.6818    2.4867 C.2       1 <0>         0.0271
      9 C8          0.5118   -2.1790    3.6909 C.2       1 <0>         0.0935
     10 N2          0.3402   -3.1390    4.6185 N.2       1 <0>        -0.4598
     11 C9         -0.1935   -4.1914    4.0638 C.2       1 <0>         0.2384
     12 N3         -0.3965   -3.9564    2.7500 N.pl3     1 <0>        -0.5513
     13 H1         -0.7843   -4.5729    2.1093 H         1 <0>         0.4229
     14 C10        -0.5363   -5.4719    4.7806 C.3       1 <0>         0.0041
     15 C11         0.6886   -5.9972    5.4841 C.ar      1 <0>        -0.0885
     16 C12         1.5464   -6.8602    4.8250 C.ar      1 <0>        -0.0838
     17 C13         2.6731   -7.3467    5.4633 C.ar      1 <0>        -0.1277
     18 C14         2.9485   -6.9740    6.7630 C.ar      1 <0>        -0.0831
     19 C15         2.0875   -6.1040    7.4334 C.ar      1 <0>        -0.1384
     20 C16         0.9552   -5.6123    6.7815 C.ar      1 <0>        -0.0283
     21 C17         2.3761   -5.7007    8.8262 C.2       1 <0>         0.5623
     22 O1          1.6244   -4.9428    9.4077 O.2       1 <0>        -0.5337
     23 N4          3.4726   -6.1735    9.4512 N.am      1 <0>        -0.8520
     24 C18         1.0884   -0.8341    3.9167 C.ar      1 <0>         0.0259
     25 C19         1.8665   -0.2314    2.9127 C.ar      1 <0>        -0.0419
     26 C20         2.4058    1.0005    3.0958 C.ar      1 <0>        -0.0936
     27 C21         2.1896    1.6922    4.3024 C.ar      1 <0>         0.0856
     28 C22         1.4061    1.0941    5.3228 C.ar      1 <0>         0.0780
     29 C23         0.8526   -0.1782    5.1116 C.ar      1 <0>        -0.0545
     30 N5          1.2002    1.7526    6.4695 N.ar      1 <0>        -0.4212
     31 C24         1.7249    2.9451    6.6388 C.ar      1 <0>         0.0704
     32 C25         2.4957    3.5333    5.6346 C.ar      1 <0>         0.0732
     33 N6          2.7125    2.9066    4.5003 N.ar      1 <0>        -0.4278
     34 H2          1.0042    1.8801    0.0026 H         1 <0>         0.0826
     35 H3         -0.5455    1.8639   -0.8728 H         1 <0>         0.0777
     36 H4         -0.5286    1.8543    0.9071 H         1 <0>         0.0790
     37 H5         -0.0067   -0.1313   -2.1355 H         1 <0>         0.1390
     38 H6          0.0270   -2.6159   -2.1403 H         1 <0>         0.1393
     39 H7          0.0536   -3.8121    0.0352 H         1 <0>         0.1295
     40 H8         -1.3211   -5.2799    5.5123 H         1 <0>         0.1096
     41 H9         -0.8853   -6.2102    4.0587 H         1 <0>         0.0953
     42 H10         1.3350   -7.1556    3.8079 H         1 <0>         0.1248
     43 H11         3.3386   -8.0199    4.9434 H         1 <0>         0.1302
     44 H12         3.8281   -7.3550    7.2605 H         1 <0>         0.1263
     45 H13         0.2874   -4.9352    7.2933 H         1 <0>         0.1411
     46 H14         4.0724   -6.7784    8.9872 H         1 <0>         0.4002
     47 H15         3.6619   -5.9090   10.3651 H         1 <0>         0.4063
     48 H16         2.0375   -0.7555    1.9840 H         1 <0>         0.1260
     49 H17         3.0015    1.4502    2.3153 H         1 <0>         0.1372
     50 H18         0.2506   -0.6436    5.8780 H         1 <0>         0.1437
     51 H19         1.5579    3.4760    7.5643 H         1 <0>         0.1739
     52 H20         2.9187    4.5145    5.7918 H         1 <0>         0.1736
@<TRIPOS>BOND
     1    1    2 1
     2    1   34 1
     3    1   35 1
     4    1   36 1
     5    2    7 ar
     6    2    3 ar
     7    3    4 ar
     8    3   37 1
     9    4    5 ar
    10    4   38 1
    11    5    6 ar
    12    5   39 1
    13    6    7 ar
    14    6    8 1
    15    8   12 1
    16    8    9 2
    17    9   10 1
    18    9   24 1
    19   10   11 2
    20   11   12 1
    21   11   14 1
    22   12   13 1
    23   14   15 1
    24   14   40 1
    25   14   41 1
    26   15   20 ar
    27   15   16 ar
    28   16   17 ar
    29   16   42 1
    30   17   18 ar
    31   17   43 1
    32   18   19 ar
    33   18   44 1
    34   19   20 ar
    35   19   21 1
    36   20   45 1
    37   21   22 2
    38   21   23 am
    39   23   46 1
    40   23   47 1
    41   24   29 ar
    42   24   25 ar
    43   25   26 ar
    44   25   48 1
    45   26   27 ar
    46   26   49 1
    47   27   33 ar
    48   27   28 ar
    49   28   29 ar
    50   28   30 ar
    51   29   50 1
    52   30   31 ar
    53   31   32 ar
    54   31   51 1
    55   32   33 ar
    56   32   52 1
@<TRIPOS>MOLECULE
CHEMBL492634__1
   52    56     0     0     0
SMALL
USER_CHARGES

@<TRIPOS>ATOM
      1 C1         -0.0184    1.5028    0.0103 C.3       1 <0>        -0.1031
      2 C2          0.0021   -0.0041    0.0020 C.ar      1 <0>         0.1319
      3 C3          0.0055   -0.6793   -1.2045 C.ar      1 <0>        -0.1711
      4 C4          0.0244   -2.0673   -1.2086 C.ar      1 <0>        -0.0719
      5 C5          0.0392   -2.7315    0.0050 C.ar      1 <0>        -0.1451
      6 C6          0.0346   -1.9873    1.1847 C.ar      1 <0>         0.2070
      7 N1          0.0218   -0.6598    1.1445 N.ar      1 <0>        -0.4707
      8 C7          0.0498   -2.6823    2.4914 C.2       1 <0>         0.0721
      9 C8          0.5150   -2.1658    3.6884 C.2       1 <0>         0.0505
     10 N2          0.3352   -3.1530    4.6280 N.pl3     1 <0>        -0.5561
     11 C9         -0.2202   -4.2165    3.9950 C.2       1 <0>         0.2307
     12 N3         -0.3917   -3.9307    2.7348 N.2       1 <0>        -0.4533
     13 H1          0.5634   -3.0992    5.5692 H         1 <0>         0.4242
     14 C10        -0.5873   -5.5238    4.6486 C.3       1 <0>         0.0054
     15 C11        -2.0397   -5.8270    4.3846 C.ar      1 <0>        -0.0882
     16 C12        -3.0098   -5.3749    5.2619 C.ar      1 <0>        -0.0831
     17 C13        -4.3453   -5.6485    5.0267 C.ar      1 <0>        -0.1272
     18 C14        -4.7184   -6.3751    3.9146 C.ar      1 <0>        -0.0834
     19 C15        -3.7451   -6.8339    3.0259 C.ar      1 <0>        -0.1395
     20 C16        -2.3997   -6.5495    3.2661 C.ar      1 <0>        -0.0290
     21 C17        -4.1376   -7.6134    1.8326 C.2       1 <0>         0.5633
     22 O1         -3.2877   -8.0118    1.0603 O.2       1 <0>        -0.5357
     23 N4         -5.4378   -7.8823    1.6010 N.am      1 <0>        -0.8519
     24 C18         1.0893   -0.8247    3.9110 C.ar      1 <0>         0.0265
     25 C19         2.0344   -0.3098    3.0037 C.ar      1 <0>        -0.0453
     26 C20         2.5760    0.9202    3.1875 C.ar      1 <0>        -0.0814
     27 C21         2.1952    1.7005    4.2957 C.ar      1 <0>         0.0863
     28 C22         1.2431    1.1932    5.2174 C.ar      1 <0>         0.0818
     29 C23         0.6900   -0.0792    5.0085 C.ar      1 <0>        -0.0773
     30 N5          0.8815    1.9361    6.2704 N.ar      1 <0>        -0.4257
     31 C24         1.4112    3.1265    6.4400 C.ar      1 <0>         0.0751
     32 C25         2.3474    3.6253    5.5329 C.ar      1 <0>         0.0757
     33 N6          2.7187    2.9148    4.4917 N.ar      1 <0>        -0.4245
     34 H2          1.0042    1.8801    0.0026 H         1 <0>         0.0783
     35 H3         -0.5455    1.8639   -0.8728 H         1 <0>         0.0752
     36 H4         -0.5286    1.8543    0.9071 H         1 <0>         0.0742
     37 H5         -0.0067   -0.1318   -2.1354 H         1 <0>         0.1348
     38 H6          0.0271   -2.6165   -2.1385 H         1 <0>         0.1372
     39 H7          0.0536   -3.8109    0.0384 H         1 <0>         0.1407
     40 H8          0.0310   -6.3218    4.2374 H         1 <0>         0.1087
     41 H9         -0.4206   -5.4521    5.7234 H         1 <0>         0.0954
     42 H10        -2.7230   -4.8064    6.1341 H         1 <0>         0.1253
     43 H11        -5.0975   -5.2928    5.7152 H         1 <0>         0.1303
     44 H12        -5.7613   -6.5886    3.7325 H         1 <0>         0.1262
     45 H13        -1.6420   -6.8979    2.5799 H         1 <0>         0.1405
     46 H14        -6.1161   -7.5644    2.2173 H         1 <0>         0.4005
     47 H15        -5.6954   -8.3937    0.8181 H         1 <0>         0.4062
     48 H16         2.3322   -0.9017    2.1508 H         1 <0>         0.1303
     49 H17         3.3005    1.3013    2.4831 H         1 <0>         0.1417
     50 H18        -0.0386   -0.4760    5.6998 H         1 <0>         0.1357
     51 H19         1.1188    3.7253    7.2899 H         1 <0>         0.1757
     52 H20         2.7714    4.6063    5.6885 H         1 <0>         0.1758
@<TRIPOS>BOND
     1    1    2 1
     2    1   34 1
     3    1   35 1
     4    1   36 1
     5    2    7 ar
     6    2    3 ar
     7    3    4 ar
     8    3   37 1
     9    4    5 ar
    10    4   38 1
    11    5    6 ar
    12    5   39 1
    13    6    7 ar
    14    6    8 1
    15    8   12 1
    16    8    9 2
    17    9   24 1
    18    9   10 1
    19   10   11 1
    20   10   13 1
    21   11   14 1
    22   11   12 2
    23   14   15 1
    24   14   40 1
    25   14   41 1
    26   15   20 ar
    27   15   16 ar
    28   16   17 ar
    29   16   42 1
    30   17   18 ar
    31   17   43 1
    32   18   19 ar
    33   18   44 1
    34   19   20 ar
    35   19   21 1
    36   20   45 1
    37   21   22 2
    38   21   23 am
    39   23   46 1
    40   23   47 1
    41   24   29 ar
    42   24   25 ar
    43   25   26 ar
    44   25   48 1
    45   26   27 ar
    46   26   49 1
    47   27   33 ar
    48   27   28 ar
    49   28   29 ar
    50   28   30 ar
    51   29   50 1
    52   30   31 ar
    53   31   32 ar
    54   31   51 1
    55   32   33 ar
    56   32   52 1
@<TRIPOS>MOLECULE
CHEMBL126676
   34    37     0     0     0
SMALL
USER_CHARGES

@<TRIPOS>ATOM
      1 C1         -0.1205    1.1752   -0.2598 C.ar      1 <0>        -0.1076
      2 C2          0.3819    0.7429    0.9544 C.ar      1 <0>        -0.1186
      3 C3          1.6133    0.1227    1.0132 C.ar      1 <0>        -0.0883
      4 C4          2.3511   -0.0679   -0.1538 C.ar      1 <0>        -0.0197
      5 C5          1.8399    0.3697   -1.3745 C.ar      1 <0>        -0.0905
      6 C6          0.6073    0.9887   -1.4212 C.ar      1 <0>        -0.1202
      7 C7          3.6752   -0.7332   -0.0970 C.2       1 <0>         0.1407
      8 C8          4.0074   -1.8696    0.6858 C.2       1 <0>        -0.2035
      9 C9          5.3203   -2.1596    0.4479 C.2       1 <0>         0.0883
     10 N1          5.7885   -1.2565   -0.4352 N.pl3     1 <0>        -0.4651
     11 H1          6.6925   -1.2221   -0.7850 H         1 <0>         0.4463
     12 N2          4.7492   -0.3794   -0.7670 N.2       1 <0>        -0.2762
     13 C10         3.0984   -2.6046    1.5926 C.ar      1 <0>         0.0623
     14 C11         3.3045   -2.6085    2.9672 C.ar      1 <0>        -0.1742
     15 C12         2.4321   -3.3081    3.7900 C.ar      1 <0>         0.1336
     16 N3          1.4085   -3.9737    3.3089 N.ar      1 <0>        -0.4774
     17 C13         1.1483   -4.0146    1.9978 C.ar      1 <0>         0.1319
     18 C14         1.9847   -3.3235    1.0885 C.ar      1 <0>        -0.0866
     19 C15         1.7040   -3.3659   -0.2833 C.ar      1 <0>        -0.0834
     20 C16         0.6245   -4.0682   -0.7289 C.ar      1 <0>        -0.1187
     21 C17        -0.2041   -4.7449    0.1629 C.ar      1 <0>        -0.0974
     22 C18         0.0469   -4.7334    1.5008 C.ar      1 <0>        -0.0972
     23 H2         -1.0866    1.6560   -0.3017 H         1 <0>         0.1248
     24 H3         -0.1905    0.8914    1.8582 H         1 <0>         0.1256
     25 H4          2.0047   -0.2140    1.9618 H         1 <0>         0.1214
     26 H5          2.4074    0.2250   -2.2818 H         1 <0>         0.1253
     27 H6          0.2100    1.3278   -2.3665 H         1 <0>         0.1266
     28 H7          5.8832   -2.9687    0.8894 H         1 <0>         0.1849
     29 H8          4.1387   -2.0706    3.3927 H         1 <0>         0.1374
     30 H9          2.6010   -3.3049    4.8567 H         1 <0>         0.1599
     31 H10         2.3395   -2.8446   -0.9839 H         1 <0>         0.1243
     32 H11         0.4086   -4.1001   -1.7866 H         1 <0>         0.1258
     33 H12        -1.0539   -5.2948   -0.2138 H         1 <0>         0.1297
     34 H13        -0.6049   -5.2639    2.1791 H         1 <0>         0.1354
@<TRIPOS>BOND
     1    1    6 ar
     2    1    2 ar
     3    1   23 1
     4    2    3 ar
     5    2   24 1
     6    3    4 ar
     7    3   25 1
     8    4    5 ar
     9    4    7 1
    10    5    6 ar
    11    5   26 1
    12    6   27 1
    13    7   12 2
    14    7    8 1
    15    8    9 2
    16    8   13 1
    17    9   10 1
    18    9   28 1
    19   10   11 1
    20   10   12 1
    21   13   18 ar
    22   13   14 ar
    23   14   15 ar
    24   14   29 1
    25   15   16 ar
    26   15   30 1
    27   16   17 ar
    28   17   22 ar
    29   17   18 ar
    30   18   19 ar
    31   19   20 ar
    32   19   31 1
    33   20   21 ar
    34   20   32 1
    35   21   22 ar
    36   21   33 1
    37   22   34 1
@<TRIPOS>MOLECULE
CHEMBL126676__1
   34    37     0     0     0
SMALL
USER_CHARGES

@<TRIPOS>ATOM
      1 C1         -0.2096    0.9782   -0.3513 C.ar      1 <0>        -0.1028
      2 C2          0.9152    1.7809   -0.4221 C.ar      1 <0>        -0.1162
      3 C3          2.1729    1.2194   -0.3460 C.ar      1 <0>        -0.1012
      4 C4          2.3093   -0.1622   -0.1970 C.ar      1 <0>        -0.0446
      5 C5          1.1700   -0.9662   -0.1262 C.ar      1 <0>        -0.0810
      6 C6         -0.0817   -0.3916   -0.2038 C.ar      1 <0>        -0.1156
      7 C7          3.6530   -0.7705   -0.1153 C.2       1 <0>         0.1543
      8 C8          4.0774   -1.7186    0.8100 C.2       1 <0>        -0.1990
      9 C9          5.4230   -2.0128    0.5172 C.2       1 <0>         0.0765
     10 N1          5.7898   -1.2962   -0.5107 N.2       1 <0>        -0.2806
     11 H1          4.7133    0.1049   -1.6813 H         1 <0>         0.4432
     12 N2          4.7094   -0.5142   -0.9346 N.pl3     1 <0>        -0.4624
     13 C10         3.2673   -2.3072    1.8973 C.ar      1 <0>         0.0631
     14 C11         2.9273   -3.6557    1.8906 C.ar      1 <0>        -0.1720
     15 C12         2.1656   -4.1763    2.9278 C.ar      1 <0>         0.1342
     16 N3          1.7508   -3.4312    3.9255 N.ar      1 <0>        -0.4782
     17 C13         2.0390   -2.1274    3.9987 C.ar      1 <0>         0.1319
     18 C14         2.8159   -1.5165    2.9853 C.ar      1 <0>        -0.0877
     19 C15         3.1189   -0.1516    3.0701 C.ar      1 <0>        -0.0846
     20 C16         2.6665    0.5745    4.1310 C.ar      1 <0>        -0.1192
     21 C17         1.9062   -0.0238    5.1329 C.ar      1 <0>        -0.0984
     22 C18         1.5851   -1.3455    5.0754 C.ar      1 <0>        -0.0964
     23 H2         -1.1920    1.4234   -0.4069 H         1 <0>         0.1275
     24 H3          0.8082    2.8493   -0.5377 H         1 <0>         0.1289
     25 H4          3.0501    1.8470   -0.4018 H         1 <0>         0.1233
     26 H5          1.2685   -2.0355   -0.0111 H         1 <0>         0.1254
     27 H6         -0.9638   -1.0124   -0.1492 H         1 <0>         0.1288
     28 H7          6.0467   -2.7131    1.0529 H         1 <0>         0.1905
     29 H8          3.2537   -4.2941    1.0830 H         1 <0>         0.1386
     30 H9          1.9066   -5.2247    2.9131 H         1 <0>         0.1603
     31 H10         3.7080    0.3227    2.2992 H         1 <0>         0.1231
     32 H11         2.9008    1.6268    4.1959 H         1 <0>         0.1252
     33 H12         1.5591    0.5719    5.9642 H         1 <0>         0.1295
     34 H13         0.9947   -1.7944    5.8604 H         1 <0>         0.1354
@<TRIPOS>BOND
     1    1    6 ar
     2    1    2 ar
     3    1   23 1
     4    2    3 ar
     5    2   24 1
     6    3    4 ar
     7    3   25 1
     8    4    5 ar
     9    4    7 1
    10    5    6 ar
    11    5   26 1
    12    6   27 1
    13    7    8 2
    14    7   12 1
    15    8    9 1
    16    8   13 1
    17    9   10 2
    18    9   28 1
    19   10   12 1
    20   11   12 1
    21   13   18 ar
    22   13   14 ar
    23   14   15 ar
    24   14   29 1
    25   15   16 ar
    26   15   30 1
    27   16   17 ar
    28   17   22 ar
    29   17   18 ar
    30   18   19 ar
    31   19   20 ar
    32   19   31 1
    33   20   21 ar
    34   20   32 1
    35   21   22 ar
    36   21   33 1
    37   22   34 1
@<TRIPOS>MOLECULE
CHEMBL550483
   42    46     0     0     0
SMALL
USER_CHARGES

@<TRIPOS>ATOM
      1 C1          1.0223    1.4364    0.0551 C.3       1 <0>        -0.1051
      2 C2          0.8072   -0.0550    0.0364 C.ar      1 <0>         0.1263
      3 C3          0.8128   -0.7306   -1.1716 C.ar      1 <0>        -0.1541
      4 C4          0.6145   -2.1030   -1.1839 C.ar      1 <0>        -0.0803
      5 C5          0.4163   -2.7530    0.0232 C.ar      1 <0>        -0.1254
      6 C6          0.4230   -2.0100    1.2008 C.ar      1 <0>         0.1698
      7 N1          0.6218   -0.6985    1.1698 N.ar      1 <0>        -0.4378
      8 C7          0.2117   -2.6915    2.5019 C.ar      1 <0>         0.4150
      9 N2          0.0263   -3.9980    2.5083 N.ar      1 <0>        -0.5283
     10 C8         -0.1674   -4.6501    3.6622 C.ar      1 <0>         0.1915
     11 C9         -0.3668   -6.0375    3.7054 C.ar      1 <0>        -0.1043
     12 C10        -0.5591   -6.6526    4.9066 C.ar      1 <0>        -0.0728
     13 C11        -0.5612   -5.9247    6.0932 C.ar      1 <0>        -0.1248
     14 C12        -0.3706   -4.5738    6.0871 C.ar      1 <0>        -0.0741
     15 C13        -0.1694   -3.9115    4.8717 C.ar      1 <0>        -0.1871
     16 C14         0.0347   -2.5106    4.8042 C.ar      1 <0>         0.4619
     17 N3          0.2224   -1.9600    3.6138 N.ar      1 <0>        -0.5429
     18 N4          0.0428   -1.7409    5.9489 N.pl3     1 <0>        -0.6334
     19 C15         0.1240   -0.3475    5.8543 C.ar      1 <0>         0.1743
     20 C16         0.8162    0.3862    6.8169 C.ar      1 <0>        -0.1341
     21 C17         0.9101    1.7398    6.7487 C.ar      1 <0>        -0.0370
     22 C18         0.3044    2.4589    5.6914 C.ar      1 <0>         0.0516
     23 C19        -0.3910    1.6903    4.7294 C.ar      1 <0>        -0.1064
     24 C20        -0.4789    0.3216    4.7978 C.ar      1 <0>        -0.0504
     25 S1         -0.9826    2.9363    3.6098 S.3       1 <0>        -0.0206
     26 C21        -0.2923    4.3476    4.4620 C.2       1 <0>         0.1405
     27 N5          0.3052    3.7930    5.4812 N.2       1 <0>        -0.4961
     28 H1          2.0879    1.6488    0.1418 H         1 <0>         0.0778
     29 H2          0.6394    1.8703   -0.8686 H         1 <0>         0.0763
     30 H3          0.4953    1.8690    0.9055 H         1 <0>         0.0808
     31 H4          0.9699   -0.1940   -2.0956 H         1 <0>         0.1388
     32 H5          0.6141   -2.6526   -2.1136 H         1 <0>         0.1416
     33 H6          0.2583   -3.8211    0.0505 H         1 <0>         0.1493
     34 H7         -0.3685   -6.6150    2.7928 H         1 <0>         0.1431
     35 H8         -0.7126   -7.7212    4.9382 H         1 <0>         0.1366
     36 H9         -0.7162   -6.4364    7.0316 H         1 <0>         0.1336
     37 H10        -0.3750   -4.0198    7.0141 H         1 <0>         0.1278
     38 H11        -0.0077   -2.1658    6.8194 H         1 <0>         0.4251
     39 H12         1.2889   -0.1341    7.6368 H         1 <0>         0.1367
     40 H13         1.4548    2.2747    7.5127 H         1 <0>         0.1382
     41 H14        -1.0158   -0.2287    4.0392 H         1 <0>         0.1459
     42 H15        -0.3540    5.3936    4.2001 H         1 <0>         0.2322
@<TRIPOS>BOND
     1    1    2 1
     2    1   28 1
     3    1   29 1
     4    1   30 1
     5    2    7 ar
     6    2    3 ar
     7    3    4 ar
     8    3   31 1
     9    4    5 ar
    10    4   32 1
    11    5    6 ar
    12    5   33 1
    13    6    7 ar
    14    6    8 1
    15    8   17 ar
    16    8    9 ar
    17    9   10 ar
    18   10   15 ar
    19   10   11 ar
    20   11   12 ar
    21   11   34 1
    22   12   13 ar
    23   12   35 1
    24   13   14 ar
    25   13   36 1
    26   14   15 ar
    27   14   37 1
    28   15   16 ar
    29   16   17 ar
    30   16   18 1
    31   18   19 1
    32   18   38 1
    33   19   24 ar
    34   19   20 ar
    35   20   21 ar
    36   20   39 1
    37   21   22 ar
    38   21   40 1
    39   22   27 1
    40   22   23 ar
    41   23   24 ar
    42   23   25 1
    43   24   41 1
    44   25   26 1
    45   26   27 2
    46   26   42 1
@<TRIPOS>MOLECULE
CHEMBL550482
   46    50     0     0     0
SMALL
USER_CHARGES

@<TRIPOS>ATOM
      1 C1          1.1812    1.4299    0.0801 C.3       1 <0>        -0.1024
      2 C2          0.9709   -0.0622    0.0578 C.ar      1 <0>         0.1237
      3 C3          1.0129   -0.7396   -1.1484 C.ar      1 <0>        -0.1553
      4 C4          0.8189   -2.1126   -1.1641 C.ar      1 <0>        -0.0804
      5 C5          0.5882   -2.7613    0.0379 C.ar      1 <0>        -0.1256
      6 C6          0.5592   -2.0164    1.2140 C.ar      1 <0>         0.1725
      7 N1          0.7550   -0.7044    1.1865 N.ar      1 <0>        -0.4374
      8 C7          0.3132   -2.6965    2.5097 C.ar      1 <0>         0.4146
      9 N2          0.1319   -4.0036    2.5131 N.ar      1 <0>        -0.5336
     10 C8         -0.0924   -4.6544    3.6621 C.ar      1 <0>         0.1922
     11 C9         -0.2886   -6.0424    3.7020 C.ar      1 <0>        -0.1062
     12 C10        -0.5129   -6.6562    4.8983 C.ar      1 <0>        -0.0733
     13 C11        -0.5509   -5.9264    6.0832 C.ar      1 <0>        -0.1280
     14 C12        -0.3640   -4.5751    6.0802 C.ar      1 <0>        -0.0722
     15 C13        -0.1310   -3.9139    4.8698 C.ar      1 <0>        -0.1904
     16 C14         0.0705   -2.5125    4.8058 C.ar      1 <0>         0.4665
     17 N3          0.2901   -1.9632    3.6203 N.ar      1 <0>        -0.5449
     18 N4          0.0433   -1.7409    5.9489 N.pl3     1 <0>        -0.6344
     19 C15         0.1240   -0.3464    5.8543 C.ar      1 <0>         0.1128
     20 C16        -0.4915    0.3141    4.7900 C.ar      1 <0>        -0.0420
     21 C17        -0.4246    1.6728    4.6795 C.ar      1 <0>        -0.1196
     22 C18         0.2636    2.4181    5.6340 C.ar      1 <0>         0.1223
     23 C19         0.8882    1.7623    6.7118 C.ar      1 <0>        -0.1652
     24 C20         0.8073    0.3690    6.8173 C.ar      1 <0>        -0.0674
     25 C21         1.5130    2.8042    7.5204 C.2       1 <0>         0.0721
     26 N5          1.2659    3.9504    6.9532 N.2       1 <0>        -0.2507
     27 N6          0.5041    3.7594    5.7959 N.pl3     1 <0>        -0.4095
     28 C22         0.0381    4.8208    4.9002 C.3       1 <0>         0.1096
     29 H1          2.2432    1.6455    0.1968 H         1 <0>         0.0780
     30 H2          0.8235    1.8612   -0.8549 H         1 <0>         0.0756
     31 H3          0.6288    1.8623    0.9144 H         1 <0>         0.0774
     32 H4          1.1948   -0.2041   -2.0685 H         1 <0>         0.1381
     33 H5          0.8467   -2.6637   -2.0925 H         1 <0>         0.1413
     34 H6          0.4326   -3.8298    0.0625 H         1 <0>         0.1495
     35 H7         -0.2625   -6.6214    2.7907 H         1 <0>         0.1419
     36 H8         -0.6638   -7.7252    4.9273 H         1 <0>         0.1353
     37 H9         -0.7312   -6.4371    7.0176 H         1 <0>         0.1324
     38 H10        -0.3961   -4.0196    7.0058 H         1 <0>         0.1272
     39 H11        -0.0318   -2.1645    6.8183 H         1 <0>         0.4207
     40 H12        -1.0264   -0.2564    4.0452 H         1 <0>         0.1387
     41 H13        -0.9056    2.1707    3.8505 H         1 <0>         0.1272
     42 H14         1.2791   -0.1427    7.6430 H         1 <0>         0.1310
     43 H15         2.0793    2.6520    8.4273 H         1 <0>         0.1966
     44 H16        -0.9395    5.1719    5.2305 H         1 <0>         0.0696
     45 H17         0.7467    5.6488    4.9184 H         1 <0>         0.0874
     46 H18        -0.0397    4.4315    3.8850 H         1 <0>         0.0845
@<TRIPOS>BOND
     1    1    2 1
     2    1   29 1
     3    1   30 1
     4    1   31 1
     5    2    7 ar
     6    2    3 ar
     7    3    4 ar
     8    3   32 1
     9    4    5 ar
    10    4   33 1
    11    5    6 ar
    12    5   34 1
    13    6    7 ar
    14    6    8 1
    15    8   17 ar
    16    8    9 ar
    17    9   10 ar
    18   10   15 ar
    19   10   11 ar
    20   11   12 ar
    21   11   35 1
    22   12   13 ar
    23   12   36 1
    24   13   14 ar
    25   13   37 1
    26   14   15 ar
    27   14   38 1
    28   15   16 ar
    29   16   17 ar
    30   16   18 1
    31   18   19 1
    32   18   39 1
    33   19   24 ar
    34   19   20 ar
    35   20   21 ar
    36   20   40 1
    37   21   22 ar
    38   21   41 1
    39   22   27 1
    40   22   23 ar
    41   23   24 ar
    42   23   25 1
    43   24   42 1
    44   25   26 2
    45   25   43 1
    46   26   27 1
    47   27   28 1
    48   28   44 1
    49   28   45 1
    50   28   46 1
@<TRIPOS>MOLECULE
CHEMBL378167
   60    65     0     0     0
SMALL
USER_CHARGES

@<TRIPOS>ATOM
      1 C1         -0.0167    1.3794    0.0096 C.ar      1 <0>        -0.0722
      2 C2          1.1938    2.0587    0.0017 C.ar      1 <0>        -0.1637
      3 C3          2.3746    1.3401   -0.0134 C.ar      1 <0>         0.0990
      4 N1          2.3647    0.0224   -0.0208 N.ar      1 <0>        -0.4592
      5 C4          1.2295   -0.6646   -0.0137 C.ar      1 <0>         0.1989
      6 C5          0.0021   -0.0041    0.0020 C.ar      1 <0>        -0.1380
      7 C6          1.2669   -2.1463   -0.0230 C.2       1 <0>         0.1323
      8 C7          2.3230   -2.9514   -0.5171 C.2       1 <0>        -0.1612
      9 C8          1.9613   -4.2555   -0.3400 C.2       1 <0>         0.0791
     10 N2          0.7448   -4.2757    0.2386 N.pl3     1 <0>        -0.3786
     11 N3          0.3291   -2.9470    0.4307 N.2       1 <0>        -0.2505
     12 C9          0.2935   -5.6583    0.4673 C.3       1 <0>         0.1273
     13 C10         1.1844   -6.5396   -0.4340 C.3       1 <0>        -0.1331
     14 C11         2.4541   -5.6691   -0.5693 C.3       1 <0>        -0.0667
     15 C12         3.5897   -2.4658   -1.1175 C.ar      1 <0>         0.0264
     16 C13         3.8661   -2.7216   -2.4644 C.ar      1 <0>        -0.1104
     17 C14         5.0265   -2.2817   -3.0294 C.ar      1 <0>        -0.0659
     18 C15         5.9528   -1.5682   -2.2618 C.ar      1 <0>         0.0453
     19 C16         5.6804   -1.3076   -0.9075 C.ar      1 <0>         0.0479
     20 C17         4.4960   -1.7530   -0.3413 C.ar      1 <0>        -0.0607
     21 N4          6.7651   -0.5982   -0.4302 N.pl3     1 <0>        -0.5010
     22 C18         7.6374   -0.4495   -1.4639 C.2       1 <0>         0.2521
     23 N5          7.1631   -1.0163   -2.5346 N.2       1 <0>        -0.4842
     24 C19         6.9430   -0.0979    0.9352 C.3       1 <0>         0.1223
     25 C20         7.5372   -1.2035    1.8101 C.3       1 <0>        -0.1697
     26 C21         7.7230   -0.6810    3.2361 C.3       1 <0>        -0.0017
     27 N6          8.2936   -1.7426    4.0761 N.4       1 <0>        -0.3946
     28 C22         9.6931   -2.0238    3.6657 C.3       1 <0>        -0.0079
     29 C23        10.3050   -2.6879    4.9247 C.3       1 <0>        -0.1458
     30 C24         9.6503   -1.9013    6.0834 C.3       1 <0>        -0.1453
     31 C25         8.3683   -1.2944    5.4836 C.3       1 <0>        -0.0085
     32 H1         -0.9522    1.9188    0.0259 H         1 <0>         0.1410
     33 H2          1.2130    3.1385    0.0070 H         1 <0>         0.1383
     34 H3          3.3180    1.8658   -0.0196 H         1 <0>         0.1542
     35 H4         -0.9212   -0.5643    0.0082 H         1 <0>         0.1404
     36 H5          0.4296   -5.9309    1.5138 H         1 <0>         0.0934
     37 H6         -0.7532   -5.7650    0.1824 H         1 <0>         0.0985
     38 H7          1.4120   -7.4888    0.0511 H         1 <0>         0.1068
     39 H8          0.7172   -6.7018   -1.4053 H         1 <0>         0.0925
     40 H9          2.8795   -5.7675   -1.5681 H         1 <0>         0.1001
     41 H10         3.1881   -5.9447    0.1878 H         1 <0>         0.0958
     42 H11         3.1546   -3.2723   -3.0618 H         1 <0>         0.1266
     43 H12         5.2307   -2.4847   -4.0703 H         1 <0>         0.1302
     44 H13         4.2807   -1.5513    0.6976 H         1 <0>         0.1170
     45 H14         8.5856    0.0643   -1.4042 H         1 <0>         0.2108
     46 H15         7.6175    0.7582    0.9235 H         1 <0>         0.1033
     47 H16         5.9774    0.2059    1.3396 H         1 <0>         0.0988
     48 H17         6.8626   -2.0596    1.8218 H         1 <0>         0.0936
     49 H18         8.5028   -1.5073    1.4058 H         1 <0>         0.0945
     50 H19         8.3976    0.1751    3.2244 H         1 <0>         0.1338
     51 H20         6.7574   -0.3773    3.6404 H         1 <0>         0.1330
     52 H21         9.7153   -2.7103    2.8194 H         1 <0>         0.1345
     53 H22        10.2170   -1.0985    3.4258 H         1 <0>         0.1349
     54 H23        10.0354   -3.7429    4.9739 H         1 <0>         0.0979
     55 H24        11.3879   -2.5645    4.9382 H         1 <0>         0.1174
     56 H25         9.4022   -2.5737    6.9045 H         1 <0>         0.1053
     57 H26        10.3172   -1.1113    6.4286 H         1 <0>         0.1044
     58 H27         8.4182   -0.2063    5.5246 H         1 <0>         0.1316
     59 H28         7.4968   -1.6499    6.0332 H         1 <0>         0.1322
     60 H29         7.7347   -2.5798    4.0068 H         1 <0>         0.4273
@<TRIPOS>BOND
     1    1    6 ar
     2    1    2 ar
     3    1   32 1
     4    2    3 ar
     5    2   33 1
     6    3    4 ar
     7    3   34 1
     8    4    5 ar
     9    5    6 ar
    10    5    7 1
    11    6   35 1
    12    7   11 2
    13    7    8 1
    14    8    9 2
    15    8   15 1
    16    9   14 1
    17    9   10 1
    18   10   11 1
    19   10   12 1
    20   12   13 1
    21   12   36 1
    22   12   37 1
    23   13   14 1
    24   13   38 1
    25   13   39 1
    26   14   40 1
    27   14   41 1
    28   15   20 ar
    29   15   16 ar
    30   16   17 ar
    31   16   42 1
    32   17   18 ar
    33   17   43 1
    34   18   23 1
    35   18   19 ar
    36   19   20 ar
    37   19   21 1
    38   20   44 1
    39   21   22 1
    40   21   24 1
    41   22   23 2
    42   22   45 1
    43   24   25 1
    44   24   46 1
    45   24   47 1
    46   25   26 1
    47   25   48 1
    48   25   49 1
    49   26   27 1
    50   26   50 1
    51   26   51 1
    52   27   31 1
    53   27   28 1
    54   27   60 1
    55   28   29 1
    56   28   52 1
    57   28   53 1
    58   29   30 1
    59   29   54 1
    60   29   55 1
    61   30   31 1
    62   30   56 1
    63   30   57 1
    64   31   58 1
    65   31   59 1
@<TRIPOS>MOLECULE
CHEMBL440084
   45    49     0     0     0
SMALL
USER_CHARGES

@<TRIPOS>ATOM
      1 C1         -0.0167    1.3789    0.0096 C.ar      1 <0>        -0.0757
      2 C2          1.1941    2.0586    0.0017 C.ar      1 <0>        -0.1711
      3 C3          2.3751    1.3408   -0.0134 C.ar      1 <0>         0.1033
      4 N1          2.3663    0.0230   -0.0208 N.ar      1 <0>        -0.4675
      5 C4          1.2307   -0.6650   -0.0137 C.ar      1 <0>         0.2024
      6 C5          0.0021   -0.0041    0.0020 C.ar      1 <0>        -0.1404
      7 C6          1.2685   -2.1448   -0.0225 C.2       1 <0>         0.0666
      8 C7          2.3023   -2.9340   -0.5056 C.2       1 <0>         0.0811
      9 N2          1.9164   -4.2375   -0.3156 N.pl3     1 <0>        -0.5508
     10 H1          2.4258   -5.0288   -0.5508 H         1 <0>         0.4264
     11 C8          0.6805   -4.2121    0.2676 C.2       1 <0>         0.2507
     12 N3          0.3115   -2.9636    0.4406 N.2       1 <0>        -0.4439
     13 C9         -0.1115   -5.3995    0.6478 C.ar      1 <0>         0.0144
     14 C10         0.3976   -6.6810    0.4208 C.ar      1 <0>        -0.1179
     15 C11        -0.3375   -7.7833    0.7737 C.ar      1 <0>        -0.0516
     16 C12        -1.5961   -7.6252    1.3604 C.ar      1 <0>        -0.1312
     17 C13        -2.1053   -6.3436    1.5874 C.ar      1 <0>        -0.0810
     18 C14        -1.3676   -5.2413    1.2397 C.ar      1 <0>        -0.0843
     19 C15        -2.3883   -8.8125    1.7401 C.2       1 <0>         0.5623
     20 O1         -1.9455   -9.9273    1.5423 O.2       1 <0>        -0.5370
     21 N4         -3.6020   -8.6600    2.3059 N.am      1 <0>        -0.8494
     22 C16         3.5664   -2.4649   -1.1051 C.ar      1 <0>        -0.0057
     23 C17         3.5546   -1.4326   -2.0465 C.ar      1 <0>        -0.0473
     24 C18         4.7370   -0.9960   -2.6052 C.ar      1 <0>        -0.0979
     25 C19         5.9411   -1.5787   -2.2363 C.ar      1 <0>         0.0448
     26 C20         5.9601   -2.6096   -1.2973 C.ar      1 <0>         0.0322
     27 C21         4.7789   -3.0478   -0.7286 C.ar      1 <0>        -0.0871
     28 O2          7.2534   -3.0055   -1.1110 O.3       1 <0>        -0.3079
     29 C22         7.9798   -2.4901   -2.2422 C.3       1 <0>         0.2130
     30 O3          7.2226   -1.3307   -2.6361 O.3       1 <0>        -0.3065
     31 H2         -0.9523    1.9181    0.0259 H         1 <0>         0.1368
     32 H3          1.2128    3.1385    0.0070 H         1 <0>         0.1357
     33 H4          3.3182    1.8671   -0.0196 H         1 <0>         0.1579
     34 H5         -0.9212   -0.5644    0.0082 H         1 <0>         0.1401
     35 H6          1.3701   -6.8031   -0.0329 H         1 <0>         0.1272
     36 H7          0.0558   -8.7736    0.5980 H         1 <0>         0.1436
     37 H8         -3.0779   -6.2214    2.0408 H         1 <0>         0.1346
     38 H9         -1.7590   -4.2509    1.4195 H         1 <0>         0.1464
     39 H10        -3.9552   -7.7705    2.4638 H         1 <0>         0.4019
     40 H11        -4.1222   -9.4398    2.5553 H         1 <0>         0.4075
     41 H12         2.6195   -0.9770   -2.3368 H         1 <0>         0.1341
     42 H13         4.7260   -0.1979   -3.3327 H         1 <0>         0.1396
     43 H14         4.7928   -3.8430    0.0020 H         1 <0>         0.1318
     44 H15         8.9911   -2.2062   -1.9508 H         1 <0>         0.1338
     45 H16         8.0041   -3.2236   -3.0481 H         1 <0>         0.0860
@<TRIPOS>BOND
     1    1    6 ar
     2    1    2 ar
     3    1   31 1
     4    2    3 ar
     5    2   32 1
     6    3    4 ar
     7    3   33 1
     8    4    5 ar
     9    5    6 ar
    10    5    7 1
    11    6   34 1
    12    7   12 1
    13    7    8 2
    14    8    9 1
    15    8   22 1
    16    9   10 1
    17    9   11 1
    18   11   12 2
    19   11   13 1
    20   13   18 ar
    21   13   14 ar
    22   14   15 ar
    23   14   35 1
    24   15   16 ar
    25   15   36 1
    26   16   17 ar
    27   16   19 1
    28   17   18 ar
    29   17   37 1
    30   18   38 1
    31   19   20 2
    32   19   21 am
    33   21   39 1
    34   21   40 1
    35   22   27 ar
    36   22   23 ar
    37   23   24 ar
    38   23   41 1
    39   24   25 ar
    40   24   42 1
    41   25   30 1
    42   25   26 ar
    43   26   27 ar
    44   26   28 1
    45   27   43 1
    46   28   29 1
    47   29   30 1
    48   29   44 1
    49   29   45 1
@<TRIPOS>MOLECULE
CHEMBL440084__1
   45    49     0     0     0
SMALL
USER_CHARGES

@<TRIPOS>ATOM
      1 C1         -0.0167    1.3784    0.0096 C.ar      1 <0>        -0.0669
      2 C2          1.1942    2.0587    0.0017 C.ar      1 <0>        -0.1676
      3 C3          2.3763    1.3417   -0.0134 C.ar      1 <0>         0.1113
      4 N1          2.3693    0.0244   -0.0204 N.ar      1 <0>        -0.4549
      5 C4          1.2328   -0.6657   -0.0133 C.ar      1 <0>         0.1920
      6 C5          0.0021   -0.0041    0.0020 C.ar      1 <0>        -0.1657
      7 C6          1.2714   -2.1398   -0.0216 C.2       1 <0>         0.0383
      8 C7          2.2946   -2.9416   -0.5049 C.2       1 <0>         0.1061
      9 N2          1.9324   -4.2194   -0.3231 N.2       1 <0>        -0.4531
     10 H1         -0.5406   -2.7369    0.8603 H         1 <0>         0.4250
     11 C8          0.7473   -4.2649    0.2435 C.2       1 <0>         0.2625
     12 N3          0.3023   -2.9925    0.4540 N.pl3     1 <0>        -0.5475
     13 C9          0.0161   -5.4978    0.6013 C.ar      1 <0>         0.0109
     14 C10        -1.2454   -5.4142    1.1964 C.ar      1 <0>        -0.1171
     15 C11        -1.9267   -6.5625    1.5293 C.ar      1 <0>        -0.0525
     16 C12        -1.3569   -7.8123    1.2722 C.ar      1 <0>        -0.1294
     17 C13        -0.0954   -7.8959    0.6770 C.ar      1 <0>        -0.0814
     18 C14         0.5835   -6.7476    0.3393 C.ar      1 <0>        -0.0818
     19 C15        -2.0880   -9.0451    1.6299 C.2       1 <0>         0.5623
     20 O1         -3.1854   -8.9723    2.1481 O.2       1 <0>        -0.5370
     21 N4         -1.5385  -10.2505    1.3819 N.am      1 <0>        -0.8491
     22 C16         3.5609   -2.4705   -1.1132 C.ar      1 <0>         0.0068
     23 C17         3.5744   -1.3121   -1.8896 C.ar      1 <0>        -0.0534
     24 C18         4.7540   -0.8747   -2.4558 C.ar      1 <0>        -0.1044
     25 C19         5.9292   -1.5833   -2.2548 C.ar      1 <0>         0.0390
     26 C20         5.9218   -2.7417   -1.4793 C.ar      1 <0>         0.0250
     27 C21         4.7425   -3.1812   -0.9057 C.ar      1 <0>        -0.0684
     28 O2          7.1898   -3.2459   -1.4366 O.3       1 <0>        -0.3087
     29 C22         7.8907   -2.6162   -2.5253 C.3       1 <0>         0.2133
     30 O3          7.2022   -1.3634   -2.6966 O.3       1 <0>        -0.3096
     31 H2         -0.9524    1.9175    0.0259 H         1 <0>         0.1396
     32 H3          1.2122    3.1385    0.0070 H         1 <0>         0.1402
     33 H4          3.3188    1.8691   -0.0200 H         1 <0>         0.1641
     34 H5         -0.9211   -0.5645    0.0082 H         1 <0>         0.1301
     35 H6         -1.6855   -4.4482    1.3954 H         1 <0>         0.1270
     36 H7         -2.9015   -6.4979    1.9896 H         1 <0>         0.1439
     37 H8          0.3450   -8.8618    0.4783 H         1 <0>         0.1353
     38 H9          1.5566   -6.8122   -0.1247 H         1 <0>         0.1477
     39 H10        -0.6629  -10.3086    0.9685 H         1 <0>         0.4022
     40 H11        -2.0186  -11.0600    1.6169 H         1 <0>         0.4077
     41 H12         2.6613   -0.7576   -2.0480 H         1 <0>         0.1297
     42 H13         4.7624    0.0224   -3.0570 H         1 <0>         0.1349
     43 H14         4.7360   -4.0762   -0.3012 H         1 <0>         0.1381
     44 H15         8.9346   -2.4466   -2.2616 H         1 <0>         0.1313
     45 H16         7.8163   -3.2208   -3.4292 H         1 <0>         0.0841
@<TRIPOS>BOND
     1    1    6 ar
     2    1    2 ar
     3    1   31 1
     4    2    3 ar
     5    2   32 1
     6    3    4 ar
     7    3   33 1
     8    4    5 ar
     9    5    6 ar
    10    5    7 1
    11    6   34 1
    12    7    8 2
    13    7   12 1
    14    8    9 1
    15    8   22 1
    16    9   11 2
    17   10   12 1
    18   11   13 1
    19   11   12 1
    20   13   18 ar
    21   13   14 ar
    22   14   15 ar
    23   14   35 1
    24   15   16 ar
    25   15   36 1
    26   16   17 ar
    27   16   19 1
    28   17   18 ar
    29   17   37 1
    30   18   38 1
    31   19   20 2
    32   19   21 am
    33   21   39 1
    34   21   40 1
    35   22   27 ar
    36   22   23 ar
    37   23   24 ar
    38   23   41 1
    39   24   25 ar
    40   24   42 1
    41   25   30 1
    42   25   26 ar
    43   26   27 ar
    44   26   28 1
    45   27   43 1
    46   28   29 1
    47   29   30 1
    48   29   44 1
    49   29   45 1
@<TRIPOS>MOLECULE
CHEMBL436944
   52    56     0     0     0
SMALL
USER_CHARGES

@<TRIPOS>ATOM
      1 C1          0.3601    1.9840   -0.5474 C.ar      1 <0>        -0.0754
      2 C2          1.6053    2.5513   -0.7802 C.ar      1 <0>        -0.1623
      3 C3          2.7353    1.7579   -0.7133 C.ar      1 <0>         0.1039
      4 N1          2.6446    0.4736   -0.4326 N.ar      1 <0>        -0.4562
      5 C4          1.4737   -0.1073   -0.2037 C.ar      1 <0>         0.1901
      6 C5          0.2939    0.6333   -0.2544 C.ar      1 <0>        -0.1391
      7 C6          1.4199   -1.5555    0.1080 C.2       1 <0>         0.1408
      8 C7          2.3837   -2.5270   -0.2650 C.2       1 <0>        -0.1820
      9 C8          1.9588   -3.7300    0.2152 C.2       1 <0>         0.0825
     10 N2          0.7903   -3.5294    0.8567 N.pl3     1 <0>        -0.4599
     11 H1          0.2610   -4.2124    1.2976 H         1 <0>         0.4481
     12 N3          0.4730   -2.1678    0.7846 N.2       1 <0>        -0.2690
     13 C9          3.6257   -2.2794   -1.0360 C.ar      1 <0>         0.0623
     14 C10         3.5952   -1.5560   -2.2333 C.ar      1 <0>        -0.1343
     15 C11         4.7716   -1.3455   -2.9236 C.ar      1 <0>         0.1077
     16 N4          5.9174   -1.8151   -2.4722 N.ar      1 <0>        -0.4779
     17 C12         5.9958   -2.5068   -1.3418 C.ar      1 <0>         0.1597
     18 C13         4.8571   -2.7572   -0.5833 C.ar      1 <0>        -0.1500
     19 C14         7.3113   -3.0125   -0.8802 C.ar      1 <0>        -0.0170
     20 C15         7.4001   -3.7448    0.3036 C.ar      1 <0>        -0.1078
     21 C16         8.6210   -4.2153    0.7328 C.ar      1 <0>        -0.0654
     22 C17         9.7707   -3.9589   -0.0176 C.ar      1 <0>        -0.1263
     23 C18         9.6808   -3.2255   -1.2029 C.ar      1 <0>        -0.0956
     24 C19         8.4581   -2.7605   -1.6331 C.ar      1 <0>        -0.0868
     25 C20        11.0816   -4.4629    0.4423 C.2       1 <0>         0.5640
     26 O1         11.1637   -5.5603    0.9587 O.2       1 <0>        -0.5302
     27 N5         12.1861   -3.7057    0.2893 N.am      1 <0>        -0.6124
     28 C21        12.0944   -2.3243   -0.2094 C.3       1 <0>         0.0620
     29 C22        12.8724   -1.4126    0.7464 C.3       1 <0>         0.0458
     30 O2         14.1903   -1.9360    0.9278 O.3       1 <0>        -0.3779
     31 C23        14.2277   -3.2310    1.5321 C.3       1 <0>         0.0474
     32 C24        13.5186   -4.2340    0.6219 C.3       1 <0>         0.0760
     33 H2         -0.5367    2.5843   -0.5897 H         1 <0>         0.1396
     34 H3          1.6906    3.6028   -1.0117 H         1 <0>         0.1389
     35 H4          3.7055    2.1964   -0.8939 H         1 <0>         0.1603
     36 H5         -0.6585    0.1595   -0.0675 H         1 <0>         0.1398
     37 H6          2.4678   -4.6757    0.1016 H         1 <0>         0.1871
     38 H7          2.6619   -1.1671   -2.6129 H         1 <0>         0.1254
     39 H8          4.7529   -0.7877   -3.8482 H         1 <0>         0.1564
     40 H9          4.9237   -3.3158    0.3386 H         1 <0>         0.1342
     41 H10         6.5110   -3.9427    0.8839 H         1 <0>         0.1340
     42 H11         8.6895   -4.7820    1.6496 H         1 <0>         0.1351
     43 H12        10.5692   -3.0263   -1.7837 H         1 <0>         0.1343
     44 H13         8.3876   -2.1972   -2.5519 H         1 <0>         0.1439
     45 H14        12.5279   -2.2649   -1.2077 H         1 <0>         0.0825
     46 H15        11.0498   -2.0148   -0.2432 H         1 <0>         0.1062
     47 H16        12.9338   -0.4098    0.3237 H         1 <0>         0.1099
     48 H17        12.3610   -1.3724    1.7082 H         1 <0>         0.0574
     49 H18        15.2643   -3.5365    1.6747 H         1 <0>         0.1097
     50 H19        13.7214   -3.1974    2.4967 H         1 <0>         0.0569
     51 H20        13.4167   -5.1885    1.1383 H         1 <0>         0.1041
     52 H21        14.0980   -4.3701   -0.2913 H         1 <0>         0.0793
@<TRIPOS>BOND
     1    1    6 ar
     2    1    2 ar
     3    1   33 1
     4    2    3 ar
     5    2   34 1
     6    3    4 ar
     7    3   35 1
     8    4    5 ar
     9    5    6 ar
    10    5    7 1
    11    6   36 1
    12    7   12 2
    13    7    8 1
    14    8    9 2
    15    8   13 1
    16    9   10 1
    17    9   37 1
    18   10   11 1
    19   10   12 1
    20   13   18 ar
    21   13   14 ar
    22   14   15 ar
    23   14   38 1
    24   15   16 ar
    25   15   39 1
    26   16   17 ar
    27   17   18 ar
    28   17   19 1
    29   18   40 1
    30   19   24 ar
    31   19   20 ar
    32   20   21 ar
    33   20   41 1
    34   21   22 ar
    35   21   42 1
    36   22   23 ar
    37   22   25 1
    38   23   24 ar
    39   23   43 1
    40   24   44 1
    41   25   26 2
    42   25   27 am
    43   27   32 1
    44   27   28 1
    45   28   29 1
    46   28   45 1
    47   28   46 1
    48   29   30 1
    49   29   47 1
    50   29   48 1
    51   30   31 1
    52   31   32 1
    53   31   49 1
    54   31   50 1
    55   32   51 1
    56   32   52 1
@<TRIPOS>MOLECULE
CHEMBL436944__1
   52    56     0     0     0
SMALL
USER_CHARGES

@<TRIPOS>ATOM
      1 C1          0.3600    1.9801   -0.5462 C.ar      1 <0>        -0.0684
      2 C2          1.6048    2.5485   -0.7800 C.ar      1 <0>        -0.1602
      3 C3          2.7363    1.7562   -0.7146 C.ar      1 <0>         0.1103
      4 N1          2.6482    0.4722   -0.4340 N.ar      1 <0>        -0.4501
      5 C4          1.4769   -0.1111   -0.2037 C.ar      1 <0>         0.1740
      6 C5          0.2947    0.6297   -0.2535 C.ar      1 <0>        -0.1576
      7 C6          1.4252   -1.5541    0.1074 C.2       1 <0>         0.1463
      8 C7          2.3618   -2.5123   -0.2586 C.2       1 <0>        -0.1668
      9 C8          1.9149   -3.7468    0.2450 C.2       1 <0>         0.0700
     10 N2          0.7858   -3.5548    0.8734 N.2       1 <0>        -0.2693
     11 H1         -0.3341   -1.7852    1.2026 H         1 <0>         0.4434
     12 N3          0.4529   -2.1967    0.8126 N.pl3     1 <0>        -0.4603
     13 C9          3.6014   -2.2775   -1.0360 C.ar      1 <0>         0.0615
     14 C10         3.5706   -1.5595   -2.2370 C.ar      1 <0>        -0.1377
     15 C11         4.7455   -1.3604   -2.9332 C.ar      1 <0>         0.1075
     16 N4          5.8902   -1.8352   -2.4842 N.ar      1 <0>        -0.4777
     17 C12         5.9689   -2.5219   -1.3508 C.ar      1 <0>         0.1608
     18 C13         4.8319   -2.7619   -0.5865 C.ar      1 <0>        -0.1465
     19 C14         7.2832   -3.0334   -0.8921 C.ar      1 <0>        -0.0177
     20 C15         7.3724   -3.7606    0.2948 C.ar      1 <0>        -0.1069
     21 C16         8.5923   -4.2359    0.7216 C.ar      1 <0>        -0.0652
     22 C17         9.7405   -3.9900   -0.0348 C.ar      1 <0>        -0.1260
     23 C18         9.6500   -3.2621   -1.2234 C.ar      1 <0>        -0.0960
     24 C19         8.4284   -2.7918   -1.6509 C.ar      1 <0>        -0.0867
     25 C20        11.0503   -4.4993    0.4226 C.2       1 <0>         0.5639
     26 O1         11.1281   -5.5945    0.9443 O.2       1 <0>        -0.5297
     27 N5         12.1585   -3.7494    0.2612 N.am      1 <0>        -0.6125
     28 C21        12.0729   -2.3701   -0.2443 C.3       1 <0>         0.0621
     29 C22        12.8600   -1.4580    0.7035 C.3       1 <0>         0.0459
     30 O2         14.1756   -1.9882    0.8823 O.3       1 <0>        -0.3780
     31 C23        14.2079   -3.2803    1.4932 C.3       1 <0>         0.0474
     32 C24        13.4893   -4.2838    0.5911 C.3       1 <0>         0.0760
     33 H2         -0.5372    2.5799   -0.5874 H         1 <0>         0.1419
     34 H3          1.6888    3.6001   -1.0112 H         1 <0>         0.1419
     35 H4          3.7057    2.1962   -0.8965 H         1 <0>         0.1636
     36 H5         -0.6573    0.1553   -0.0659 H         1 <0>         0.1336
     37 H6          2.4202   -4.6945    0.1313 H         1 <0>         0.1935
     38 H7          2.6384   -1.1661   -2.6146 H         1 <0>         0.1239
     39 H8          4.7266   -0.8072   -3.8606 H         1 <0>         0.1560
     40 H9          4.8988   -3.3168    0.3376 H         1 <0>         0.1363
     41 H10         6.4845   -3.9506    0.8795 H         1 <0>         0.1351
     42 H11         8.6612   -4.7983    1.6410 H         1 <0>         0.1356
     43 H12        10.5373   -3.0714   -1.8089 H         1 <0>         0.1341
     44 H13         8.3577   -2.2322   -2.5719 H         1 <0>         0.1436
     45 H14        12.5026   -2.3184   -1.2447 H         1 <0>         0.0824
     46 H15        11.0300   -2.0547   -0.2756 H         1 <0>         0.1061
     47 H16        12.9256   -0.4578    0.2754 H         1 <0>         0.1096
     48 H17        12.3528   -1.4099    1.6671 H         1 <0>         0.0574
     49 H18        15.2433   -3.5910    1.6332 H         1 <0>         0.1097
     50 H19        13.7057   -3.2387    2.4597 H         1 <0>         0.0569
     51 H20        13.3839   -5.2349    1.1129 H         1 <0>         0.1042
     52 H21        14.0641   -4.4280   -0.3237 H         1 <0>         0.0792
@<TRIPOS>BOND
     1    1    6 ar
     2    1    2 ar
     3    1   33 1
     4    2    3 ar
     5    2   34 1
     6    3    4 ar
     7    3   35 1
     8    4    5 ar
     9    5    6 ar
    10    5    7 1
    11    6   36 1
    12    7    8 2
    13    7   12 1
    14    8    9 1
    15    8   13 1
    16    9   10 2
    17    9   37 1
    18   10   12 1
    19   11   12 1
    20   13   18 ar
    21   13   14 ar
    22   14   15 ar
    23   14   38 1
    24   15   16 ar
    25   15   39 1
    26   16   17 ar
    27   17   18 ar
    28   17   19 1
    29   18   40 1
    30   19   24 ar
    31   19   20 ar
    32   20   21 ar
    33   20   41 1
    34   21   22 ar
    35   21   42 1
    36   22   23 ar
    37   22   25 1
    38   23   24 ar
    39   23   43 1
    40   24   44 1
    41   25   26 2
    42   25   27 am
    43   27   32 1
    44   27   28 1
    45   28   29 1
    46   28   45 1
    47   28   46 1
    48   29   30 1
    49   29   47 1
    50   29   48 1
    51   30   31 1
    52   31   32 1
    53   31   49 1
    54   31   50 1
    55   32   51 1
    56   32   52 1
@<TRIPOS>MOLECULE
CHEMBL570533
   39    42     0     0     0
SMALL
USER_CHARGES

@<TRIPOS>ATOM
      1 C1          0.5987    1.4594    0.0125 C.3       1 <0>        -0.1037
      2 C2          0.3772   -0.0312    0.0034 C.ar      1 <0>         0.1254
      3 C3          0.2917   -0.7014   -1.2046 C.ar      1 <0>        -0.1536
      4 C4          0.0879   -2.0731   -1.2081 C.ar      1 <0>        -0.0800
      5 C5         -0.0236   -2.7278    0.0076 C.ar      1 <0>        -0.1251
      6 C6          0.0724   -1.9901    1.1847 C.ar      1 <0>         0.1700
      7 N1          0.2731   -0.6792    1.1447 N.ar      1 <0>        -0.4391
      8 C7         -0.0454   -2.6766    2.4948 C.ar      1 <0>         0.4134
      9 N2         -0.2346   -3.9825    2.5094 N.ar      1 <0>        -0.5267
     10 C8         -0.3455   -4.6389    3.6716 C.ar      1 <0>         0.1912
     11 C9         -0.5464   -6.0259    3.7237 C.ar      1 <0>        -0.1037
     12 C10        -0.6522   -6.6454    4.9332 C.ar      1 <0>        -0.0726
     13 C11        -0.5640   -5.9227    6.1198 C.ar      1 <0>        -0.1236
     14 C12        -0.3694   -4.5726    6.1053 C.ar      1 <0>        -0.0749
     15 C13        -0.2560   -3.9055    4.8810 C.ar      1 <0>        -0.1867
     16 C14        -0.0523   -2.5053    4.8045 C.ar      1 <0>         0.4617
     17 N3          0.0496   -1.9502    3.6062 N.ar      1 <0>        -0.5403
     18 N4          0.0424   -1.7400    5.9495 N.pl3     1 <0>        -0.6345
     19 C15         0.1232   -0.3521    5.8553 C.ar      1 <0>         0.1931
     20 C16        -0.4834    0.3299    4.8009 C.ar      1 <0>        -0.1576
     21 C17        -0.3805    1.7041    4.7442 C.ar      1 <0>         0.1206
     22 N5          0.2814    2.3718    5.6705 N.ar      1 <0>        -0.4977
     23 C18         0.8689    1.7631    6.6835 C.ar      1 <0>         0.1172
     24 C19         0.8078    0.3916    6.8160 C.ar      1 <0>        -0.2057
     25 H1          1.6685    1.6677    0.0217 H         1 <0>         0.0790
     26 H2          0.1506    1.8987   -0.8787 H         1 <0>         0.0766
     27 H3          0.1371    1.8899    0.9012 H         1 <0>         0.0794
     28 H4          0.3825   -0.1612   -2.1354 H         1 <0>         0.1393
     29 H5          0.0173   -2.6185   -2.1375 H         1 <0>         0.1420
     30 H6         -0.1830   -3.7954    0.0419 H         1 <0>         0.1494
     31 H7         -0.6172   -6.5994    2.8113 H         1 <0>         0.1438
     32 H8         -0.8073   -7.7136    4.9716 H         1 <0>         0.1372
     33 H9         -0.6513   -6.4380    7.0649 H         1 <0>         0.1340
     34 H10        -0.3026   -4.0228    7.0325 H         1 <0>         0.1273
     35 H11         0.0526   -2.1685    6.8197 H         1 <0>         0.4237
     36 H12        -1.0259   -0.2105    4.0393 H         1 <0>         0.1507
     37 H13        -0.8471    2.2405    3.9313 H         1 <0>         0.1573
     38 H14         1.4010    2.3466    7.4202 H         1 <0>         0.1583
     39 H15         1.2872   -0.0999    7.6496 H         1 <0>         0.1350
@<TRIPOS>BOND
     1    1    2 1
     2    1   25 1
     3    1   26 1
     4    1   27 1
     5    2    7 ar
     6    2    3 ar
     7    3    4 ar
     8    3   28 1
     9    4    5 ar
    10    4   29 1
    11    5    6 ar
    12    5   30 1
    13    6    7 ar
    14    6    8 1
    15    8   17 ar
    16    8    9 ar
    17    9   10 ar
    18   10   15 ar
    19   10   11 ar
    20   11   12 ar
    21   11   31 1
    22   12   13 ar
    23   12   32 1
    24   13   14 ar
    25   13   33 1
    26   14   15 ar
    27   14   34 1
    28   15   16 ar
    29   16   17 ar
    30   16   18 1
    31   18   19 1
    32   18   35 1
    33   19   24 ar
    34   19   20 ar
    35   20   21 ar
    36   20   36 1
    37   21   22 ar
    38   21   37 1
    39   22   23 ar
    40   23   24 ar
    41   23   38 1
    42   24   39 1
@<TRIPOS>MOLECULE
CHEMBL593704
   37    40     0     0     0
SMALL
USER_CHARGES

@<TRIPOS>ATOM
      1 C1          0.0692    1.4509   -0.2227 C.3       1 <0>         0.0928
      2 N1          0.0406   -0.0087   -0.1003 N.pl3     1 <0>        -0.3850
      3 C2         -1.0930   -0.7869   -0.1294 C.2       1 <0>         0.2459
      4 C3         -0.7061   -2.1111    0.0164 C.2       1 <0>        -0.2179
      5 C4          0.7560   -2.1113    0.1398 C.2       1 <0>         0.5484
      6 O1          1.4691   -3.0875    0.2834 O.2       1 <0>        -0.5256
      7 N2          1.1620   -0.8287    0.0583 N.am      1 <0>        -0.4143
      8 C5          2.5511   -0.3685    0.1280 C.3       1 <0>         0.0983
      9 C6         -1.5925   -3.2900    0.0432 C.2       1 <0>        -0.0440
     10 C7         -1.6699   -4.3330   -0.8433 C.2       1 <0>        -0.1450
     11 C8         -2.5880   -5.3341   -0.6078 C.2       1 <0>        -0.1497
     12 C9         -3.3836   -5.2575    0.4889 C.2       1 <0>        -0.1784
     13 S1         -2.8384   -3.7338    1.2424 S.3       1 <0>         0.0297
     14 C10        -2.4750   -0.2999   -0.2877 C.ar      1 <0>        -0.0347
     15 C11        -2.9257    0.7885    0.4842 C.ar      1 <0>        -0.0834
     16 C12        -4.1934    1.2536    0.3560 C.ar      1 <0>        -0.0747
     17 C13        -5.0785    0.6492   -0.5570 C.ar      1 <0>         0.0902
     18 C14        -4.6375   -0.4477   -1.3412 C.ar      1 <0>         0.0784
     19 C15        -3.3211   -0.9129   -1.1996 C.ar      1 <0>        -0.0242
     20 N3         -5.4797   -1.0207   -2.2093 N.ar      1 <0>        -0.4159
     21 C16        -6.7051   -0.5625   -2.3268 C.ar      1 <0>         0.0800
     22 C17        -7.1391    0.5172   -1.5548 C.ar      1 <0>         0.0867
     23 N4         -6.3310    1.0961   -0.6956 N.ar      1 <0>        -0.4258
     24 H1          1.1006    1.7997   -0.1706 H         1 <0>         0.0947
     25 H2         -0.3656    1.7440   -1.1783 H         1 <0>         0.0858
     26 H3         -0.5060    1.8950    0.5897 H         1 <0>         0.0853
     27 H4          2.8154   -0.1667    1.1660 H         1 <0>         0.0724
     28 H5          3.2098   -1.1397   -0.2713 H         1 <0>         0.1017
     29 H6          2.6617    0.5433   -0.4589 H         1 <0>         0.0815
     30 H7         -1.0249   -4.3695   -1.7088 H         1 <0>         0.1326
     31 H8         -2.6732   -6.1688   -1.2878 H         1 <0>         0.1337
     32 H9         -4.1473   -5.9444    0.8226 H         1 <0>         0.1836
     33 H10        -2.2538    1.2584    1.1871 H         1 <0>         0.1397
     34 H11        -4.5245    2.0887    0.9555 H         1 <0>         0.1483
     35 H12        -2.9709   -1.7445   -1.7931 H         1 <0>         0.1496
     36 H13        -7.3838   -1.0254   -3.0278 H         1 <0>         0.1798
     37 H14        -8.1501    0.8804   -1.6654 H         1 <0>         0.1795
@<TRIPOS>BOND
     1    1    2 1
     2    1   24 1
     3    1   25 1
     4    1   26 1
     5    2    7 1
     6    2    3 1
     7    3    4 2
     8    3   14 1
     9    4    5 1
    10    4    9 1
    11    5    6 2
    12    5    7 am
    13    7    8 1
    14    8   27 1
    15    8   28 1
    16    8   29 1
    17    9   13 1
    18    9   10 2
    19   10   11 1
    20   10   30 1
    21   11   12 2
    22   11   31 1
    23   12   13 1
    24   12   32 1
    25   14   19 ar
    26   14   15 ar
    27   15   16 ar
    28   15   33 1
    29   16   17 ar
    30   16   34 1
    31   17   23 ar
    32   17   18 ar
    33   18   19 ar
    34   18   20 ar
    35   19   35 1
    36   20   21 ar
    37   21   22 ar
    38   21   36 1
    39   22   23 ar
    40   22   37 1
@<TRIPOS>MOLECULE
CHEMBL125846
   31    33     0     0     0
SMALL
USER_CHARGES

@<TRIPOS>ATOM
      1 C1         -0.0184    1.5028    0.0103 C.3       1 <0>        -0.1067
      2 C2          0.0021   -0.0041    0.0020 C.ar      1 <0>         0.1404
      3 C3          0.0056   -0.6793   -1.2050 C.ar      1 <0>        -0.1635
      4 C4          0.0249   -2.0673   -1.2096 C.ar      1 <0>        -0.0652
      5 C5          0.0401   -2.7321    0.0035 C.ar      1 <0>        -0.1672
      6 C6          0.0355   -1.9879    1.1844 C.ar      1 <0>         0.1825
      7 N1          0.0218   -0.6595    1.1443 N.ar      1 <0>        -0.4494
      8 C7          0.0510   -2.6816    2.4880 C.2       1 <0>         0.1366
      9 C8          0.5162   -2.1684    3.6913 C.2       1 <0>        -0.1554
     10 C9          0.3405   -3.1652    4.6667 C.2       1 <0>         0.0650
     11 N2         -0.1944   -4.2134    4.0989 N.2       1 <0>        -0.2718
     12 N3         -0.3943   -3.9456    2.7397 N.pl3     1 <0>        -0.4630
     13 H1         -0.7806   -4.5535    2.0900 H         1 <0>         0.4421
     14 C10         1.0917   -0.8190    3.9074 C.ar      1 <0>         0.0006
     15 C11         2.1009   -0.3470    3.0695 C.ar      1 <0>        -0.0567
     16 C12         2.6334    0.9092    3.2744 C.ar      1 <0>        -0.1518
     17 C13         2.1666    1.7012    4.3110 C.ar      1 <0>         0.0943
     18 C14         1.1641    1.2360    5.1466 C.ar      1 <0>        -0.1516
     19 C15         0.6213   -0.0164    4.9455 C.ar      1 <0>        -0.0786
     20 F1          2.6910    2.9306    4.5079 F         1 <0>        -0.1425
     21 H2          1.0042    1.8801    0.0026 H         1 <0>         0.0818
     22 H3         -0.5455    1.8639   -0.8728 H         1 <0>         0.0777
     23 H4         -0.5286    1.8543    0.9071 H         1 <0>         0.0801
     24 H5         -0.0069   -0.1316   -2.1357 H         1 <0>         0.1401
     25 H6          0.0276   -2.6161   -2.1398 H         1 <0>         0.1413
     26 H7          0.0549   -3.8115    0.0365 H         1 <0>         0.1327
     27 H8          0.6039   -3.0792    5.7105 H         1 <0>         0.1924
     28 H9          2.4655   -0.9637    2.2614 H         1 <0>         0.1188
     29 H10         3.4155    1.2756    2.6260 H         1 <0>         0.1311
     30 H11         0.8039    1.8565    5.9538 H         1 <0>         0.1345
     31 H12        -0.1638   -0.3761    5.5942 H         1 <0>         0.1315
@<TRIPOS>BOND
     1    1    2 1
     2    1   21 1
     3    1   22 1
     4    1   23 1
     5    2    7 ar
     6    2    3 ar
     7    3    4 ar
     8    3   24 1
     9    4    5 ar
    10    4   25 1
    11    5    6 ar
    12    5   26 1
    13    6    7 ar
    14    6    8 1
    15    8   12 1
    16    8    9 2
    17    9   10 1
    18    9   14 1
    19   10   11 2
    20   10   27 1
    21   11   12 1
    22   12   13 1
    23   14   19 ar
    24   14   15 ar
    25   15   16 ar
    26   15   28 1
    27   16   17 ar
    28   16   29 1
    29   17   18 ar
    30   17   20 1
    31   18   19 ar
    32   18   30 1
    33   19   31 1
@<TRIPOS>MOLECULE
CHEMBL125846__1
   31    33     0     0     0
SMALL
USER_CHARGES

@<TRIPOS>ATOM
      1 C1         -0.0184    1.5028    0.0103 C.3       1 <0>        -0.1045
      2 C2          0.0021   -0.0041    0.0020 C.ar      1 <0>         0.1336
      3 C3          0.0056   -0.6794   -1.2046 C.ar      1 <0>        -0.1645
      4 C4          0.0249   -2.0670   -1.2080 C.ar      1 <0>        -0.0723
      5 C5          0.0401   -2.7306    0.0065 C.ar      1 <0>        -0.1477
      6 C6          0.0355   -1.9865    1.1848 C.ar      1 <0>         0.1971
      7 N1          0.0218   -0.6599    1.1445 N.ar      1 <0>        -0.4545
      8 C7          0.0515   -2.6820    2.4936 C.2       1 <0>         0.1355
      9 C8          0.5291   -2.1483    3.7172 C.2       1 <0>        -0.1716
     10 C9          0.3650   -3.1051    4.6731 C.2       1 <0>         0.0738
     11 N2         -0.1872   -4.1866    4.0852 N.pl3     1 <0>        -0.4630
     12 N3         -0.3800   -3.9024    2.7280 N.2       1 <0>        -0.2708
     13 H1         -0.4152   -5.0188    4.5284 H         1 <0>         0.4466
     14 C10         1.1029   -0.7950    3.9197 C.ar      1 <0>         0.0019
     15 C11         2.1077   -0.3285    3.0745 C.ar      1 <0>        -0.0544
     16 C12         2.6381    0.9309    3.2662 C.ar      1 <0>        -0.1511
     17 C13         2.1731    1.7311    4.2970 C.ar      1 <0>         0.0937
     18 C14         1.1742    1.2713    5.1396 C.ar      1 <0>        -0.1523
     19 C15         0.6344    0.0153    4.9520 C.ar      1 <0>        -0.0825
     20 F1          2.6955    2.9633    4.4813 F         1 <0>        -0.1427
     21 H2          1.0042    1.8801    0.0026 H         1 <0>         0.0794
     22 H3         -0.5455    1.8639   -0.8728 H         1 <0>         0.0760
     23 H4         -0.5286    1.8543    0.9071 H         1 <0>         0.0780
     24 H5         -0.0069   -0.1322   -2.1356 H         1 <0>         0.1375
     25 H6          0.0277   -2.6167   -2.1375 H         1 <0>         0.1392
     26 H7          0.0549   -3.8100    0.0406 H         1 <0>         0.1391
     27 H8          0.6298   -3.0140    5.7162 H         1 <0>         0.1858
     28 H9          2.4711   -0.9517    2.2709 H         1 <0>         0.1203
     29 H10         3.4172    1.2932    2.6118 H         1 <0>         0.1314
     30 H11         0.8146    1.8984    5.9420 H         1 <0>         0.1336
     31 H12        -0.1474   -0.3406    5.6066 H         1 <0>         0.1291
@<TRIPOS>BOND
     1    1    2 1
     2    1   21 1
     3    1   22 1
     4    1   23 1
     5    2    7 ar
     6    2    3 ar
     7    3    4 ar
     8    3   24 1
     9    4    5 ar
    10    4   25 1
    11    5    6 ar
    12    5   26 1
    13    6    7 ar
    14    6    8 1
    15    8   12 2
    16    8    9 1
    17    9   14 1
    18    9   10 2
    19   10   27 1
    20   10   11 1
    21   11   12 1
    22   11   13 1
    23   14   19 ar
    24   14   15 ar
    25   15   16 ar
    26   15   28 1
    27   16   17 ar
    28   16   29 1
    29   17   18 ar
    30   17   20 1
    31   18   19 ar
    32   18   30 1
    33   19   31 1
@<TRIPOS>MOLECULE
CHEMBL379700
   60    64     0     0     0
SMALL
USER_CHARGES

@<TRIPOS>ATOM
      1 C1         -0.0167    1.3795    0.0096 C.ar      1 <0>        -0.0759
      2 C2          1.1938    2.0587    0.0017 C.ar      1 <0>        -0.1629
      3 C3          2.3745    1.3401   -0.0134 C.ar      1 <0>         0.1040
      4 N1          2.3646    0.0224   -0.0208 N.ar      1 <0>        -0.4548
      5 C4          1.2295   -0.6646   -0.0137 C.ar      1 <0>         0.1908
      6 C5          0.0021   -0.0041    0.0020 C.ar      1 <0>        -0.1397
      7 C6          1.2668   -2.1464   -0.0230 C.2       1 <0>         0.1401
      8 C7          2.3237   -2.9527   -0.5175 C.2       1 <0>        -0.1793
      9 C8          1.9628   -4.2550   -0.3389 C.2       1 <0>         0.0809
     10 N2          0.7442   -4.2707    0.2372 N.pl3     1 <0>        -0.4607
     11 H1          0.2420   -5.0643    0.4800 H         1 <0>         0.4476
     12 N3          0.3284   -2.9481    0.4310 N.2       1 <0>        -0.2698
     13 C9          3.5892   -2.4678   -1.1191 C.ar      1 <0>         0.0629
     14 C10         3.5787   -1.5044   -2.1343 C.ar      1 <0>        -0.1429
     15 C11         4.7758   -1.0773   -2.6702 C.ar      1 <0>         0.1082
     16 N4          5.9242   -1.5623   -2.2405 N.ar      1 <0>        -0.4852
     17 C12         5.9841   -2.4770   -1.2802 C.ar      1 <0>         0.1773
     18 C13         4.8221   -2.9560   -0.6836 C.ar      1 <0>        -0.1587
     19 C14         7.3027   -2.9890   -0.8350 C.ar      1 <0>        -0.0867
     20 C15         7.3747   -3.9537    0.1689 C.ar      1 <0>        -0.0607
     21 C16         8.6022   -4.4278    0.5807 C.ar      1 <0>        -0.1561
     22 C17         9.7659   -3.9450   -0.0031 C.ar      1 <0>         0.1420
     23 C18         9.6974   -2.9841   -1.0032 C.ar      1 <0>        -0.2147
     24 C19         8.4726   -2.5107   -1.4235 C.ar      1 <0>        -0.0372
     25 O1         10.9739   -4.4133    0.4054 O.3       1 <0>        -0.3144
     26 C20        12.1302   -3.8734   -0.2376 C.3       1 <0>         0.0571
     27 C21        13.3878   -4.5165    0.3504 C.3       1 <0>        -0.1146
     28 C22        14.6258   -3.9384   -0.3381 C.3       1 <0>        -0.0834
     29 C23        14.7424   -2.4484   -0.0108 C.3       1 <0>        -0.1196
     30 C24        15.9804   -1.8703   -0.6993 C.3       1 <0>        -0.1206
     31 C25        17.2289   -2.6010   -0.2011 C.3       1 <0>        -0.1214
     32 C26        17.1124   -4.0911   -0.5284 C.3       1 <0>        -0.1204
     33 C27        15.8743   -4.6692    0.1600 C.3       1 <0>        -0.1134
     34 H2         -0.9522    1.9188    0.0259 H         1 <0>         0.1393
     35 H3          1.2130    3.1385    0.0070 H         1 <0>         0.1386
     36 H4          3.3180    1.8657   -0.0196 H         1 <0>         0.1600
     37 H5         -0.9212   -0.5643    0.0082 H         1 <0>         0.1395
     38 H6          2.5489   -5.1204   -0.6108 H         1 <0>         0.1868
     39 H7          2.6440   -1.1004   -2.4943 H         1 <0>         0.1231
     40 H8          4.7724   -0.3343   -3.4540 H         1 <0>         0.1537
     41 H9          4.8731   -3.6967    0.1007 H         1 <0>         0.1322
     42 H10         6.4700   -4.3291    0.6238 H         1 <0>         0.1323
     43 H11         8.6586   -5.1751    1.3583 H         1 <0>         0.1336
     44 H12        10.6043   -2.6102   -1.4551 H         1 <0>         0.1298
     45 H13         8.4197   -1.7666   -2.2045 H         1 <0>         0.1380
     46 H14        12.0818   -4.0811   -1.3066 H         1 <0>         0.0626
     47 H15        12.1647   -2.7957   -0.0781 H         1 <0>         0.0658
     48 H16        13.4362   -4.3088    1.4193 H         1 <0>         0.0747
     49 H17        13.3533   -5.5942    0.1908 H         1 <0>         0.0747
     50 H18        14.5353   -4.0675   -1.4166 H         1 <0>         0.0732
     51 H19        13.8529   -1.9278   -0.3657 H         1 <0>         0.0622
     52 H20        14.8328   -2.3193    1.0677 H         1 <0>         0.0646
     53 H21        15.8899   -1.9994   -1.7778 H         1 <0>         0.0616
     54 H22        16.0634   -0.8088   -0.4661 H         1 <0>         0.0620
     55 H23        18.1109   -2.1892   -0.6916 H         1 <0>         0.0609
     56 H24        17.3194   -2.4720    0.8774 H         1 <0>         0.0615
     57 H25        17.0219   -4.2202   -1.6070 H         1 <0>         0.0616
     58 H26        18.0018   -4.6117   -0.1735 H         1 <0>         0.0624
     59 H27        15.9648   -4.5401    1.2386 H         1 <0>         0.0639
     60 H28        15.7913   -5.7307   -0.0731 H         1 <0>         0.0634
@<TRIPOS>BOND
     1    1    6 ar
     2    1    2 ar
     3    1   34 1
     4    2    3 ar
     5    2   35 1
     6    3    4 ar
     7    3   36 1
     8    4    5 ar
     9    5    6 ar
    10    5    7 1
    11    6   37 1
    12    7   12 2
    13    7    8 1
    14    8    9 2
    15    8   13 1
    16    9   10 1
    17    9   38 1
    18   10   11 1
    19   10   12 1
    20   13   18 ar
    21   13   14 ar
    22   14   15 ar
    23   14   39 1
    24   15   16 ar
    25   15   40 1
    26   16   17 ar
    27   17   18 ar
    28   17   19 1
    29   18   41 1
    30   19   24 ar
    31   19   20 ar
    32   20   21 ar
    33   20   42 1
    34   21   22 ar
    35   21   43 1
    36   22   23 ar
    37   22   25 1
    38   23   24 ar
    39   23   44 1
    40   24   45 1
    41   25   26 1
    42   26   27 1
    43   26   46 1
    44   26   47 1
    45   27   28 1
    46   27   48 1
    47   27   49 1
    48   28   33 1
    49   28   29 1
    50   28   50 1
    51   29   30 1
    52   29   51 1
    53   29   52 1
    54   30   31 1
    55   30   53 1
    56   30   54 1
    57   31   32 1
    58   31   55 1
    59   31   56 1
    60   32   33 1
    61   32   57 1
    62   32   58 1
    63   33   59 1
    64   33   60 1
@<TRIPOS>MOLECULE
CHEMBL379700__1
   60    64     0     0     0
SMALL
USER_CHARGES

@<TRIPOS>ATOM
      1 C1         -0.0167    1.3791    0.0096 C.ar      1 <0>        -0.0688
      2 C2          1.1939    2.0588    0.0017 C.ar      1 <0>        -0.1609
      3 C3          2.3757    1.3409   -0.0134 C.ar      1 <0>         0.1104
      4 N1          2.3675    0.0237   -0.0209 N.ar      1 <0>        -0.4488
      5 C4          1.2315   -0.6652   -0.0137 C.ar      1 <0>         0.1750
      6 C5          0.0021   -0.0041    0.0020 C.ar      1 <0>        -0.1583
      7 C6          1.2696   -2.1418   -0.0230 C.2       1 <0>         0.1444
      8 C7          2.2978   -2.9387   -0.5099 C.2       1 <0>        -0.1640
      9 C8          1.9149   -4.2780   -0.3177 C.2       1 <0>         0.0695
     10 N2          0.7367   -4.2963    0.2464 N.2       1 <0>        -0.2703
     11 H1         -0.5339   -2.7121    0.8547 H         1 <0>         0.4429
     12 N3          0.3057   -2.9803    0.4497 N.pl3     1 <0>        -0.4610
     13 C9          3.5631   -2.4655   -1.1193 C.ar      1 <0>         0.0620
     14 C10         3.5545   -1.5057   -2.1384 C.ar      1 <0>        -0.1461
     15 C11         4.7521   -1.0894   -2.6817 C.ar      1 <0>         0.1080
     16 N4          5.8991   -1.5814   -2.2561 N.ar      1 <0>        -0.4850
     17 C12         5.9572   -2.4928   -1.2925 C.ar      1 <0>         0.1783
     18 C13         4.7950   -2.9610   -0.6880 C.ar      1 <0>        -0.1551
     19 C14         7.2744   -3.0124   -0.8520 C.ar      1 <0>        -0.0875
     20 C15         7.3447   -3.9739    0.1551 C.ar      1 <0>        -0.0599
     21 C16         8.5708   -4.4554    0.5622 C.ar      1 <0>        -0.1559
     22 C17         9.7350   -3.9834   -0.0295 C.ar      1 <0>         0.1423
     23 C18         9.6682   -3.0259   -1.0329 C.ar      1 <0>        -0.2151
     24 C19         8.4447   -2.5447   -1.4482 C.ar      1 <0>        -0.0372
     25 O1         10.9416   -4.4591    0.3743 O.3       1 <0>        -0.3142
     26 C20        12.0984   -3.9302   -0.2769 C.3       1 <0>         0.0571
     27 C21        13.3544   -4.5804    0.3069 C.3       1 <0>        -0.1147
     28 C22        14.5929   -4.0140   -0.3904 C.3       1 <0>        -0.0834
     29 C23        14.7222   -2.5237   -0.0694 C.3       1 <0>        -0.1195
     30 C24        15.9607   -1.9573   -0.7666 C.3       1 <0>        -0.1206
     31 C25        17.2065   -2.6954   -0.2723 C.3       1 <0>        -0.1214
     32 C26        17.0772   -4.1858   -0.5933 C.3       1 <0>        -0.1204
     33 C27        15.8387   -4.7521    0.1039 C.3       1 <0>        -0.1134
     34 H2         -0.9523    1.9183    0.0259 H         1 <0>         0.1415
     35 H3          1.2124    3.1386    0.0070 H         1 <0>         0.1415
     36 H4          3.3185    1.8676   -0.0196 H         1 <0>         0.1633
     37 H5         -0.9212   -0.5644    0.0082 H         1 <0>         0.1333
     38 H6          2.4970   -5.1458   -0.5906 H         1 <0>         0.1932
     39 H7          2.6211   -1.0963   -2.4954 H         1 <0>         0.1216
     40 H8          4.7503   -0.3492   -3.4681 H         1 <0>         0.1533
     41 H9          4.8447   -3.6988    0.0992 H         1 <0>         0.1343
     42 H10         6.4397   -4.3408    0.6162 H         1 <0>         0.1334
     43 H11         8.6259   -5.2002    1.3424 H         1 <0>         0.1340
     44 H12        10.5753   -2.6604   -1.4910 H         1 <0>         0.1296
     45 H13         8.3931   -1.8029   -2.2315 H         1 <0>         0.1377
     46 H14        12.0428   -4.1415   -1.3448 H         1 <0>         0.0627
     47 H15        12.1417   -2.8522   -0.1217 H         1 <0>         0.0656
     48 H16        13.4100   -4.3690    1.3747 H         1 <0>         0.0747
     49 H17        13.3111   -5.6584    0.1516 H         1 <0>         0.0749
     50 H18        14.4957   -4.1465   -1.4679 H         1 <0>         0.0732
     51 H19        13.8347   -1.9979   -0.4215 H         1 <0>         0.0621
     52 H20        14.8194   -2.3912    1.0082 H         1 <0>         0.0646
     53 H21        15.8635   -2.0898   -1.8441 H         1 <0>         0.0615
     54 H22        16.0528   -0.8956   -0.5379 H         1 <0>         0.0619
     55 H23        18.0888   -2.2919   -0.7690 H         1 <0>         0.0609
     56 H24        17.3036   -2.5629    0.8052 H         1 <0>         0.0615
     57 H25        16.9800   -4.3182   -1.6709 H         1 <0>         0.0616
     58 H26        17.9647   -4.7116   -0.2412 H         1 <0>         0.0623
     59 H27        15.9358   -4.6196    1.1815 H         1 <0>         0.0639
     60 H28        15.7466   -5.8138   -0.1248 H         1 <0>         0.0635
@<TRIPOS>BOND
     1    1    6 ar
     2    1    2 ar
     3    1   34 1
     4    2    3 ar
     5    2   35 1
     6    3    4 ar
     7    3   36 1
     8    4    5 ar
     9    5    6 ar
    10    5    7 1
    11    6   37 1
    12    7    8 2
    13    7   12 1
    14    8    9 1
    15    8   13 1
    16    9   10 2
    17    9   38 1
    18   10   12 1
    19   11   12 1
    20   13   18 ar
    21   13   14 ar
    22   14   15 ar
    23   14   39 1
    24   15   16 ar
    25   15   40 1
    26   16   17 ar
    27   17   18 ar
    28   17   19 1
    29   18   41 1
    30   19   24 ar
    31   19   20 ar
    32   20   21 ar
    33   20   42 1
    34   21   22 ar
    35   21   43 1
    36   22   23 ar
    37   22   25 1
    38   23   24 ar
    39   23   44 1
    40   24   45 1
    41   25   26 1
    42   26   27 1
    43   26   46 1
    44   26   47 1
    45   27   28 1
    46   27   48 1
    47   27   49 1
    48   28   33 1
    49   28   29 1
    50   28   50 1
    51   29   30 1
    52   29   51 1
    53   29   52 1
    54   30   31 1
    55   30   53 1
    56   30   54 1
    57   31   32 1
    58   31   55 1
    59   31   56 1
    60   32   33 1
    61   32   57 1
    62   32   58 1
    63   33   59 1
    64   33   60 1
@<TRIPOS>MOLECULE
CHEMBL226838
   46    49     0     0     0
SMALL
USER_CHARGES

@<TRIPOS>ATOM
      1 C1         -0.0184    1.5028    0.0103 C.3       1 <0>        -0.1069
      2 C2          0.0021   -0.0041    0.0020 C.ar      1 <0>         0.1419
      3 C3          0.0055   -0.6791   -1.2047 C.ar      1 <0>        -0.1724
      4 C4          0.0244   -2.0675   -1.2099 C.ar      1 <0>        -0.0632
      5 C5          0.0392   -2.7328    0.0024 C.ar      1 <0>        -0.1767
      6 C6          0.0347   -1.9886    1.1844 C.ar      1 <0>         0.2045
      7 N1          0.0218   -0.6596    1.1445 N.ar      1 <0>        -0.4582
      8 C7          0.0503   -2.6820    2.4864 C.2       1 <0>         0.0181
      9 C8          0.5116   -2.1797    3.6902 C.2       1 <0>         0.1019
     10 N2          0.3399   -3.1391    4.6177 N.2       1 <0>        -0.4699
     11 C9         -0.1941   -4.1920    4.0636 C.2       1 <0>         0.2490
     12 N3         -0.3969   -3.9577    2.7499 N.pl3     1 <0>        -0.5518
     13 H1         -0.7841   -4.5747    2.1092 H         1 <0>         0.4209
     14 C10        -0.5367   -5.4723    4.7810 C.3       1 <0>         0.0145
     15 C11         0.4917   -6.5476    4.4244 C.3       1 <0>        -0.1427
     16 C12        -0.5190   -5.2307    6.2917 C.3       1 <0>        -0.1298
     17 C13        -1.9304   -5.9383    4.3553 C.3       1 <0>        -0.1479
     18 C14         1.0885   -0.8340    3.9161 C.ar      1 <0>         0.0108
     19 C15         1.8613   -0.2296    2.9248 C.ar      1 <0>        -0.0534
     20 C16         2.3978    1.0236    3.1365 C.ar      1 <0>        -0.1047
     21 C17         2.1711    1.6866    4.3335 C.ar      1 <0>         0.0369
     22 C18         1.3992    1.0876    5.3278 C.ar      1 <0>         0.0243
     23 C19         0.8552   -0.1666    5.1182 C.ar      1 <0>        -0.0693
     24 O1          1.3281    1.9361    6.3950 O.3       1 <0>        -0.3092
     25 C20         2.3982    2.8808    6.2069 C.3       1 <0>         0.2134
     26 O2          2.5823    2.9098    4.7793 O.3       1 <0>        -0.3101
     27 H2          1.0042    1.8801    0.0026 H         1 <0>         0.0818
     28 H3         -0.5455    1.8639   -0.8728 H         1 <0>         0.0768
     29 H4         -0.5286    1.8543    0.9071 H         1 <0>         0.0800
     30 H5         -0.0067   -0.1311   -2.1353 H         1 <0>         0.1381
     31 H6          0.0270   -2.6159   -2.1403 H         1 <0>         0.1384
     32 H7          0.0536   -3.8122    0.0348 H         1 <0>         0.1283
     33 H8          1.4846   -6.2156    4.7277 H         1 <0>         0.0649
     34 H9          0.2439   -7.4736    4.9433 H         1 <0>         0.0715
     35 H10         0.4791   -6.7197    3.3481 H         1 <0>         0.0534
     36 H11        -1.2516   -4.4647    6.5458 H         1 <0>         0.0616
     37 H12        -0.7667   -6.1567    6.8106 H         1 <0>         0.0625
     38 H13         0.4739   -4.8988    6.5950 H         1 <0>         0.0700
     39 H14        -1.9430   -6.1104    3.2790 H         1 <0>         0.0521
     40 H15        -2.1781   -6.8643    4.8742 H         1 <0>         0.0744
     41 H16        -2.6630   -5.1722    4.6094 H         1 <0>         0.0633
     42 H17         2.0399   -0.7428    1.9915 H         1 <0>         0.1286
     43 H18         2.9966    1.4897    2.3679 H         1 <0>         0.1332
     44 H19         0.2535   -0.6301    5.8860 H         1 <0>         0.1373
     45 H20         2.1096    3.8649    6.5760 H         1 <0>         0.1307
     46 H21         3.3053    2.5356    6.7030 H         1 <0>         0.0833
@<TRIPOS>BOND
     1    1    2 1
     2    1   27 1
     3    1   28 1
     4    1   29 1
     5    2    7 ar
     6    2    3 ar
     7    3    4 ar
     8    3   30 1
     9    4    5 ar
    10    4   31 1
    11    5    6 ar
    12    5   32 1
    13    6    7 ar
    14    6    8 1
    15    8   12 1
    16    8    9 2
    17    9   10 1
    18    9   18 1
    19   10   11 2
    20   11   12 1
    21   11   14 1
    22   12   13 1
    23   14   15 1
    24   14   16 1
    25   14   17 1
    26   15   33 1
    27   15   34 1
    28   15   35 1
    29   16   36 1
    30   16   37 1
    31   16   38 1
    32   17   39 1
    33   17   40 1
    34   17   41 1
    35   18   23 ar
    36   18   19 ar
    37   19   20 ar
    38   19   42 1
    39   20   21 ar
    40   20   43 1
    41   21   26 1
    42   21   22 ar
    43   22   23 ar
    44   22   24 1
    45   23   44 1
    46   24   25 1
    47   25   26 1
    48   25   45 1
    49   25   46 1
@<TRIPOS>MOLECULE
CHEMBL226838__1
   46    49     0     0     0
SMALL
USER_CHARGES

@<TRIPOS>ATOM
      1 C1         -0.0184    1.5028    0.0103 C.3       1 <0>        -0.1035
      2 C2          0.0021   -0.0041    0.0020 C.ar      1 <0>         0.1324
      3 C3          0.0056   -0.6792   -1.2044 C.ar      1 <0>        -0.1736
      4 C4          0.0249   -2.0673   -1.2086 C.ar      1 <0>        -0.0726
      5 C5          0.0401   -2.7316    0.0047 C.ar      1 <0>        -0.1485
      6 C6          0.0355   -1.9875    1.1847 C.ar      1 <0>         0.2109
      7 N1          0.0218   -0.6599    1.1447 N.ar      1 <0>        -0.4687
      8 C7          0.0515   -2.6825    2.4911 C.2       1 <0>         0.0611
      9 C8          0.5166   -2.1659    3.6874 C.2       1 <0>         0.0620
     10 N2          0.3381   -3.1526    4.6270 N.pl3     1 <0>        -0.5579
     11 C9         -0.2172   -4.2175    3.9942 C.2       1 <0>         0.2384
     12 N3         -0.3894   -3.9320    2.7345 N.2       1 <0>        -0.4601
     13 H1          0.5667   -3.0983    5.5681 H         1 <0>         0.4220
     14 C10        -0.5831   -5.5250    4.6482 C.3       1 <0>         0.0164
     15 C11        -1.8554   -5.3417    5.4780 C.3       1 <0>        -0.1431
     16 C12        -0.8250   -6.5840    3.5708 C.3       1 <0>        -0.1293
     17 C13         0.5597   -5.9766    5.5598 C.3       1 <0>        -0.1475
     18 C14         1.0900   -0.8234    3.9098 C.ar      1 <0>         0.0022
     19 C15         2.0271   -0.3050    3.0134 C.ar      1 <0>        -0.0495
     20 C16         2.5608    0.9492    3.2228 C.ar      1 <0>        -0.0974
     21 C17         2.1706    1.6996    4.3225 C.ar      1 <0>         0.0411
     22 C18         1.2355    1.1878    5.2214 C.ar      1 <0>         0.0318
     23 C19         0.6923   -0.0665    5.0139 C.ar      1 <0>        -0.0897
     24 O1          1.0253    2.1115    6.2047 O.3       1 <0>        -0.3087
     25 C20         2.1400    3.0191    6.1240 C.3       1 <0>         0.2132
     26 O2          2.5443    2.9431    4.7443 O.3       1 <0>        -0.3072
     27 H2          1.0042    1.8801    0.0026 H         1 <0>         0.0778
     28 H3         -0.5455    1.8639   -0.8728 H         1 <0>         0.0745
     29 H4         -0.5286    1.8543    0.9071 H         1 <0>         0.0758
     30 H5         -0.0069   -0.1316   -2.1352 H         1 <0>         0.1340
     31 H6          0.0276   -2.6164   -2.1385 H         1 <0>         0.1361
     32 H7          0.0549   -3.8110    0.0380 H         1 <0>         0.1392
     33 H8         -2.6695   -5.0200    4.8286 H         1 <0>         0.0641
     34 H9         -2.1200   -6.2874    5.9511 H         1 <0>         0.0709
     35 H10        -1.6830   -4.5872    6.2456 H         1 <0>         0.0537
     36 H11         0.0814   -6.7146    2.9796 H         1 <0>         0.0612
     37 H12        -1.0896   -7.5297    4.0439 H         1 <0>         0.0622
     38 H13        -1.6392   -6.2623    2.9214 H         1 <0>         0.0690
     39 H14         0.7321   -5.2221    6.3273 H         1 <0>         0.0526
     40 H15         0.2951   -6.9223    6.0328 H         1 <0>         0.0736
     41 H16         1.4661   -6.1072    4.9686 H         1 <0>         0.0631
     42 H17         2.3339   -0.8863    2.1566 H         1 <0>         0.1324
     43 H18         3.2853    1.3485    2.5285 H         1 <0>         0.1378
     44 H19        -0.0354   -0.4621    5.7070 H         1 <0>         0.1302
     45 H20         1.8277    4.0325    6.3763 H         1 <0>         0.1330
     46 H21         2.9481    2.6923    6.7784 H         1 <0>         0.0850
@<TRIPOS>BOND
     1    1    2 1
     2    1   27 1
     3    1   28 1
     4    1   29 1
     5    2    7 ar
     6    2    3 ar
     7    3    4 ar
     8    3   30 1
     9    4    5 ar
    10    4   31 1
    11    5    6 ar
    12    5   32 1
    13    6    7 ar
    14    6    8 1
    15    8   12 1
    16    8    9 2
    17    9   18 1
    18    9   10 1
    19   10   11 1
    20   10   13 1
    21   11   14 1
    22   11   12 2
    23   14   15 1
    24   14   16 1
    25   14   17 1
    26   15   33 1
    27   15   34 1
    28   15   35 1
    29   16   36 1
    30   16   37 1
    31   16   38 1
    32   17   39 1
    33   17   40 1
    34   17   41 1
    35   18   23 ar
    36   18   19 ar
    37   19   20 ar
    38   19   42 1
    39   20   21 ar
    40   20   43 1
    41   21   26 1
    42   21   22 ar
    43   22   23 ar
    44   22   24 1
    45   23   44 1
    46   24   25 1
    47   25   26 1
    48   25   45 1
    49   25   46 1
@<TRIPOS>MOLECULE
CHEMBL365663
   34    37     0     0     0
SMALL
USER_CHARGES

@<TRIPOS>ATOM
      1 C1          0.6472    0.3146    1.2749 C.ar      1 <0>        -0.1214
      2 C2          1.8441    1.0011    1.2486 C.ar      1 <0>        -0.0323
      3 C3          2.3667    1.4403    0.0323 C.ar      1 <0>        -0.0121
      4 C4          1.6753    1.1826   -1.1515 C.ar      1 <0>        -0.0704
      5 C5          0.4787    0.4948   -1.1126 C.ar      1 <0>        -0.0469
      6 C6         -0.0345    0.0615    0.0984 C.ar      1 <0>        -0.0955
      7 Cl1        -0.3838    0.1727   -2.5844 Cl        1 <0>        -0.0721
      8 C7          3.6505    2.1779   -0.0021 C.2       1 <0>         0.2138
      9 C8          4.7650    1.7560    0.7209 C.2       1 <0>        -0.2288
     10 S1          5.9455    3.0188    0.2741 S.3       1 <0>         0.1414
     11 C9          4.9557    3.9222   -0.7429 C.2       1 <0>         0.3310
     12 N1          3.8107    3.2742   -0.7252 N.2       1 <0>        -0.5829
     13 N2          5.2728    5.0732   -1.4386 N.pl3     1 <0>        -0.7928
     14 C10         4.9244    0.5925    1.6074 C.ar      1 <0>         0.2651
     15 C11         6.1148    0.4449    2.3463 C.ar      1 <0>        -0.1522
     16 C12         6.2733   -0.6261    3.1694 C.ar      1 <0>        -0.0323
     17 C13         5.2245   -1.5683    3.2575 C.ar      1 <0>         0.0705
     18 C14         4.0524   -1.3633    2.4888 C.ar      1 <0>         0.0927
     19 N3          3.9444   -0.2923    1.6994 N.ar      1 <0>        -0.4547
     20 C15         3.0091   -2.3059    2.5801 C.ar      1 <0>        -0.0452
     21 C16         3.1775   -3.3782    3.4094 C.ar      1 <0>        -0.1557
     22 C17         4.3572   -3.5169    4.1364 C.ar      1 <0>         0.1295
     23 N4          5.3264   -2.6371    4.0493 N.ar      1 <0>        -0.4631
     24 H1          0.2441   -0.0297    2.2159 H         1 <0>         0.1319
     25 H2          2.3749    1.1981    2.1682 H         1 <0>         0.1244
     26 H3          2.0749    1.5206   -2.0962 H         1 <0>         0.1323
     27 H4         -0.9707   -0.4765    0.1243 H         1 <0>         0.1326
     28 H5          6.1630    5.4520   -1.3693 H         1 <0>         0.4229
     29 H6          4.6051    5.5023   -1.9962 H         1 <0>         0.4187
     30 H7          6.9004    1.1809    2.2591 H         1 <0>         0.1420
     31 H8          7.1801   -0.7535    3.7421 H         1 <0>         0.1515
     32 H9          2.1001   -2.1837    2.0098 H         1 <0>         0.1474
     33 H10         2.3960   -4.1179    3.5015 H         1 <0>         0.1458
     34 H11         4.4770   -4.3696    4.7883 H         1 <0>         0.1650
@<TRIPOS>BOND
     1    1    6 ar
     2    1    2 ar
     3    1   24 1
     4    2    3 ar
     5    2   25 1
     6    3    4 ar
     7    3    8 1
     8    4    5 ar
     9    4   26 1
    10    5    6 ar
    11    5    7 1
    12    6   27 1
    13    8   12 1
    14    8    9 2
    15    9   10 1
    16    9   14 1
    17   10   11 1
    18   11   12 2
    19   11   13 1
    20   13   28 1
    21   13   29 1
    22   14   19 ar
    23   14   15 ar
    24   15   16 ar
    25   15   30 1
    26   16   17 ar
    27   16   31 1
    28   17   23 ar
    29   17   18 ar
    30   18   19 ar
    31   18   20 ar
    32   20   21 ar
    33   20   32 1
    34   21   22 ar
    35   21   33 1
    36   22   23 ar
    37   22   34 1
@<TRIPOS>MOLECULE
CHEMBL206017
   55    59     0     0     0
SMALL
USER_CHARGES

@<TRIPOS>ATOM
      1 C1          0.2327    1.8149   -0.1795 C.ar      1 <0>        -0.0758
      2 C2          1.4682    2.4267   -0.3401 C.ar      1 <0>        -0.1629
      3 C3          2.6147    1.6547   -0.3216 C.ar      1 <0>         0.1040
      4 N1          2.5489    0.3493   -0.1543 N.ar      1 <0>        -0.4551
      5 C4          1.3881   -0.2740    0.0027 C.ar      1 <0>         0.1910
      6 C5          0.1927    0.4428   -0.0051 C.ar      1 <0>        -0.1396
      7 C6          1.3624   -1.7446    0.1874 C.2       1 <0>         0.1400
      8 C7          2.3539   -2.6593   -0.2506 C.2       1 <0>        -0.1800
      9 C8          1.9493   -3.9081    0.1169 C.2       1 <0>         0.0814
     10 N2          0.7665   -3.7888    0.7525 N.pl3     1 <0>        -0.4605
     11 H1          0.2459   -4.5185    1.1233 H         1 <0>         0.4477
     12 N3          0.4190   -2.4333    0.7916 N.2       1 <0>        -0.2698
     13 C9          3.6018   -2.3196   -0.9758 C.ar      1 <0>         0.0624
     14 C10         3.5731   -1.4963   -2.1073 C.ar      1 <0>        -0.1405
     15 C11         4.7541   -1.2015   -2.7560 C.ar      1 <0>         0.1074
     16 N4          5.9041   -1.6827   -2.3262 N.ar      1 <0>        -0.4826
     17 C12         5.9808   -2.4672   -1.2579 C.ar      1 <0>         0.1721
     18 C13         4.8361   -2.8077   -0.5443 C.ar      1 <0>        -0.1557
     19 C14         7.3002   -2.9814   -0.8179 C.ar      1 <0>        -0.0607
     20 C15         7.3892   -3.8105    0.2996 C.ar      1 <0>        -0.0805
     21 C16         8.6167   -4.2877    0.7064 C.ar      1 <0>        -0.1241
     22 C17         9.7653   -3.9428    0.0037 C.ar      1 <0>         0.1542
     23 C18         9.6792   -3.1160   -1.1104 C.ar      1 <0>        -0.1505
     24 C19         8.4532   -2.6411   -1.5244 C.ar      1 <0>        -0.0584
     25 N5         11.0088   -4.4278    0.4181 N.am      1 <0>        -0.6738
     26 C20        11.1032   -5.6511    0.9758 C.2       1 <0>         0.5192
     27 O1         10.1274   -6.3693    1.0313 O.2       1 <0>        -0.5120
     28 C21        12.4212   -6.1267    1.5306 C.3       1 <0>        -0.1084
     29 C22        13.4664   -6.1592    0.4113 C.3       1 <0>        -0.1499
     30 C23        14.7795   -6.7176    0.9660 C.3       1 <0>         0.0620
     31 O2         14.5502   -8.0192    1.5097 O.3       1 <0>        -0.3802
     32 C24        13.6170   -8.0434    2.5916 C.3       1 <0>         0.0598
     33 C25        12.2572   -7.5383    2.1022 C.3       1 <0>        -0.1374
     34 H2         -0.6768    2.3973   -0.1859 H         1 <0>         0.1394
     35 H3          1.5331    3.4958   -0.4787 H         1 <0>         0.1386
     36 H4          3.5775    2.1279   -0.4464 H         1 <0>         0.1601
     37 H5         -0.7515   -0.0656    0.1231 H         1 <0>         0.1396
     38 H6          2.4814   -4.8294   -0.0687 H         1 <0>         0.1869
     39 H7          2.6369   -1.0969   -2.4686 H         1 <0>         0.1236
     40 H8          4.7367   -0.5670   -3.6298 H         1 <0>         0.1544
     41 H9          4.9011   -3.4422    0.3272 H         1 <0>         0.1325
     42 H10         6.4971   -4.0785    0.8461 H         1 <0>         0.1290
     43 H11         8.6861   -4.9297    1.5721 H         1 <0>         0.1359
     44 H12        10.5730   -2.8491   -1.6546 H         1 <0>         0.1286
     45 H13         8.3862   -2.0023   -2.3926 H         1 <0>         0.1402
     46 H14        11.8039   -3.8840    0.3043 H         1 <0>         0.4113
     47 H15        12.7504   -5.4500    2.3191 H         1 <0>         0.1036
     48 H16        13.1128   -6.7969   -0.3989 H         1 <0>         0.0808
     49 H17        13.6299   -5.1490    0.0361 H         1 <0>         0.0793
     50 H18        15.5144   -6.7831    0.1637 H         1 <0>         0.0999
     51 H19        15.1534   -6.0575    1.7487 H         1 <0>         0.0547
     52 H20        13.5144   -9.0640    2.9603 H         1 <0>         0.1003
     53 H21        13.9757   -7.4007    3.3955 H         1 <0>         0.0530
     54 H22        11.5558   -7.5143    2.9362 H         1 <0>         0.0826
     55 H23        11.8791   -8.2039    1.3262 H         1 <0>         0.0826
@<TRIPOS>BOND
     1    1    6 ar
     2    1    2 ar
     3    1   34 1
     4    2    3 ar
     5    2   35 1
     6    3    4 ar
     7    3   36 1
     8    4    5 ar
     9    5    6 ar
    10    5    7 1
    11    6   37 1
    12    7   12 2
    13    7    8 1
    14    8    9 2
    15    8   13 1
    16    9   10 1
    17    9   38 1
    18   10   11 1
    19   10   12 1
    20   13   18 ar
    21   13   14 ar
    22   14   15 ar
    23   14   39 1
    24   15   16 ar
    25   15   40 1
    26   16   17 ar
    27   17   18 ar
    28   17   19 1
    29   18   41 1
    30   19   24 ar
    31   19   20 ar
    32   20   21 ar
    33   20   42 1
    34   21   22 ar
    35   21   43 1
    36   22   23 ar
    37   22   25 1
    38   23   24 ar
    39   23   44 1
    40   24   45 1
    41   25   26 am
    42   25   46 1
    43   26   27 2
    44   26   28 1
    45   28   33 1
    46   28   29 1
    47   28   47 1
    48   29   30 1
    49   29   48 1
    50   29   49 1
    51   30   31 1
    52   30   50 1
    53   30   51 1
    54   31   32 1
    55   32   33 1
    56   32   52 1
    57   32   53 1
    58   33   54 1
    59   33   55 1
@<TRIPOS>MOLECULE
CHEMBL206017__1
   55    59     0     0     0
SMALL
USER_CHARGES

@<TRIPOS>ATOM
      1 C1          0.2337    1.8125   -0.1782 C.ar      1 <0>        -0.0688
      2 C2          1.4690    2.4252   -0.3397 C.ar      1 <0>        -0.1610
      3 C3          2.6169    1.6543   -0.3223 C.ar      1 <0>         0.1103
      4 N1          2.5532    0.3492   -0.1549 N.ar      1 <0>        -0.4491
      5 C4          1.3919   -0.2763    0.0031 C.ar      1 <0>         0.1752
      6 C5          0.1942    0.4408   -0.0041 C.ar      1 <0>        -0.1582
      7 C6          1.3677   -1.7416    0.1878 C.2       1 <0>         0.1444
      8 C7          2.3316   -2.6447   -0.2424 C.2       1 <0>        -0.1644
      9 C8          1.9047   -3.9271    0.1453 C.2       1 <0>         0.0697
     10 N2          0.7618   -3.8141    0.7677 N.2       1 <0>        -0.2700
     11 H1         -0.4033   -2.1036    1.2273 H         1 <0>         0.4429
     12 N3          0.3990   -2.4632    0.8174 N.pl3     1 <0>        -0.4610
     13 C9          3.5781   -2.3173   -0.9740 C.ar      1 <0>         0.0614
     14 C10         3.5506   -1.4985   -2.1093 C.ar      1 <0>        -0.1438
     15 C11         4.7310   -1.2156   -2.7644 C.ar      1 <0>         0.1073
     16 N4          5.8792   -1.7038   -2.3376 N.ar      1 <0>        -0.4824
     17 C12         5.9549   -2.4843   -1.2663 C.ar      1 <0>         0.1732
     18 C13         4.8111   -2.8127   -0.5457 C.ar      1 <0>        -0.1521
     19 C14         7.2725   -3.0062   -0.8299 C.ar      1 <0>        -0.0615
     20 C15         7.3604   -3.8312    0.2907 C.ar      1 <0>        -0.0797
     21 C16         8.5863   -4.3150    0.6945 C.ar      1 <0>        -0.1241
     22 C17         9.7343   -3.9812   -0.0145 C.ar      1 <0>         0.1547
     23 C18         9.6492   -3.1585   -1.1317 C.ar      1 <0>        -0.1510
     24 C19         8.4247   -2.6773   -1.5429 C.ar      1 <0>        -0.0583
     25 N5         10.9761   -4.4730    0.3968 N.am      1 <0>        -0.6739
     26 C20        11.0644   -5.6945    0.9594 C.2       1 <0>         0.5189
     27 O1         10.0839   -6.4056    1.0220 O.2       1 <0>        -0.5112
     28 C21        12.3814   -6.1768    1.5107 C.3       1 <0>        -0.1083
     29 C22        13.4217   -6.2214    0.3872 C.3       1 <0>        -0.1499
     30 C23        14.7332   -6.7865    0.9389 C.3       1 <0>         0.0620
     31 O2         14.4972   -8.0841    1.4890 O.3       1 <0>        -0.3802
     32 C24        13.5684   -8.0973    2.5749 C.3       1 <0>         0.0598
     33 C25        12.2100   -7.5848    2.0890 C.3       1 <0>        -0.1375
     34 H2         -0.6760    2.3946   -0.1838 H         1 <0>         0.1416
     35 H3          1.5329    3.4944   -0.4780 H         1 <0>         0.1415
     36 H4          3.5789    2.1287   -0.4481 H         1 <0>         0.1633
     37 H5         -0.7497   -0.0680    0.1247 H         1 <0>         0.1334
     38 H6          2.4330   -4.8506   -0.0406 H         1 <0>         0.1933
     39 H7          2.6160   -1.0934   -2.4682 H         1 <0>         0.1221
     40 H8          4.7146   -0.5847   -3.6408 H         1 <0>         0.1540
     41 H9          4.8753   -3.4437    0.3284 H         1 <0>         0.1346
     42 H10         6.4687   -4.0906    0.8421 H         1 <0>         0.1301
     43 H11         8.6549   -4.9538    1.5626 H         1 <0>         0.1362
     44 H12        10.5426   -2.8999   -1.6807 H         1 <0>         0.1284
     45 H13         8.3584   -2.0423   -2.4141 H         1 <0>         0.1400
     46 H14        11.7745   -3.9352    0.2773 H         1 <0>         0.4112
     47 H15        12.7186   -5.4990    2.2949 H         1 <0>         0.1034
     48 H16        13.0603   -6.8601   -0.4187 H         1 <0>         0.0809
     49 H17        13.5905   -5.2139    0.0070 H         1 <0>         0.0791
     50 H18        15.4643   -6.8605    0.1338 H         1 <0>         0.0998
     51 H19        15.1149   -6.1256    1.7171 H         1 <0>         0.0546
     52 H20        13.4603   -9.1155    2.9485 H         1 <0>         0.1003
     53 H21        13.9348   -7.4536    3.3746 H         1 <0>         0.0529
     54 H22        11.5124   -7.5524    2.9259 H         1 <0>         0.0828
     55 H23        11.8242   -8.2511    1.3175 H         1 <0>         0.0828
@<TRIPOS>BOND
     1    1    6 ar
     2    1    2 ar
     3    1   34 1
     4    2    3 ar
     5    2   35 1
     6    3    4 ar
     7    3   36 1
     8    4    5 ar
     9    5    6 ar
    10    5    7 1
    11    6   37 1
    12    7    8 2
    13    7   12 1
    14    8    9 1
    15    8   13 1
    16    9   10 2
    17    9   38 1
    18   10   12 1
    19   11   12 1
    20   13   18 ar
    21   13   14 ar
    22   14   15 ar
    23   14   39 1
    24   15   16 ar
    25   15   40 1
    26   16   17 ar
    27   17   18 ar
    28   17   19 1
    29   18   41 1
    30   19   24 ar
    31   19   20 ar
    32   20   21 ar
    33   20   42 1
    34   21   22 ar
    35   21   43 1
    36   22   23 ar
    37   22   25 1
    38   23   24 ar
    39   23   44 1
    40   24   45 1
    41   25   26 am
    42   25   46 1
    43   26   27 2
    44   26   28 1
    45   28   33 1
    46   28   29 1
    47   28   47 1
    48   29   30 1
    49   29   48 1
    50   29   49 1
    51   30   31 1
    52   30   50 1
    53   30   51 1
    54   31   32 1
    55   32   33 1
    56   32   52 1
    57   32   53 1
    58   33   54 1
    59   33   55 1
@<TRIPOS>MOLECULE
CHEMBL202887
   55    59     0     0     0
SMALL
USER_CHARGES

@<TRIPOS>ATOM
      1 C1         -0.0167    1.3795    0.0096 C.ar      1 <0>        -0.0754
      2 C2          1.1938    2.0587    0.0017 C.ar      1 <0>        -0.1623
      3 C3          2.3745    1.3401   -0.0134 C.ar      1 <0>         0.1039
      4 N1          2.3646    0.0224   -0.0208 N.ar      1 <0>        -0.4563
      5 C4          1.2295   -0.6646   -0.0137 C.ar      1 <0>         0.1901
      6 C5          0.0021   -0.0041    0.0020 C.ar      1 <0>        -0.1392
      7 C6          1.2668   -2.1464   -0.0230 C.2       1 <0>         0.1409
      8 C7          2.3237   -2.9527   -0.5175 C.2       1 <0>        -0.1820
      9 C8          1.9624   -4.2550   -0.3396 C.2       1 <0>         0.0825
     10 N2          0.7436   -4.2707    0.2360 N.pl3     1 <0>        -0.4599
     11 H1          0.2411   -5.0643    0.4782 H         1 <0>         0.4481
     12 N3          0.3284   -2.9481    0.4310 N.2       1 <0>        -0.2689
     13 C9          3.5897   -2.4678   -1.1181 C.ar      1 <0>         0.0622
     14 C10         3.5801   -1.5040   -2.1323 C.ar      1 <0>        -0.1342
     15 C11         4.7785   -1.0768   -2.6672 C.ar      1 <0>         0.1074
     16 N4          5.9259   -1.5629   -2.2377 N.ar      1 <0>        -0.4779
     17 C12         5.9849   -2.4782   -1.2780 C.ar      1 <0>         0.1591
     18 C13         4.8227   -2.9569   -0.6822 C.ar      1 <0>        -0.1496
     19 C14         7.3032   -2.9914   -0.8329 C.ar      1 <0>        -0.0145
     20 C15         7.3722   -3.9574    0.1709 C.ar      1 <0>        -0.1110
     21 C16         8.5958   -4.4349    0.5846 C.ar      1 <0>        -0.0597
     22 C17         9.7680   -3.9515   -0.0012 C.ar      1 <0>        -0.1314
     23 C18         9.6977   -2.9842   -1.0063 C.ar      1 <0>        -0.0896
     24 C19         8.4729   -2.5119   -1.4223 C.ar      1 <0>        -0.0886
     25 C20        11.0816   -4.4629    0.4423 C.2       1 <0>         0.5607
     26 O1         11.1423   -5.3045    1.3174 O.2       1 <0>        -0.5341
     27 N5         12.2124   -3.9961   -0.1233 N.am      1 <0>        -0.7226
     28 C21        13.5146   -4.5030    0.3164 C.3       1 <0>         0.1439
     29 C22        13.9865   -3.7108    1.5396 C.3       1 <0>        -0.1674
     30 C23        15.3818   -4.1940    1.9437 C.3       1 <0>         0.0629
     31 O2         16.2761   -4.0396    0.8399 O.3       1 <0>        -0.3811
     32 C24        15.9111   -4.7951   -0.3169 C.3       1 <0>         0.0641
     33 C25        14.5371   -4.3360   -0.8119 C.3       1 <0>        -0.1648
     34 H2         -0.9522    1.9188    0.0259 H         1 <0>         0.1397
     35 H3          1.2130    3.1385    0.0070 H         1 <0>         0.1390
     36 H4          3.3180    1.8657   -0.0196 H         1 <0>         0.1603
     37 H5         -0.9212   -0.5643    0.0082 H         1 <0>         0.1398
     38 H6          2.5484   -5.1204   -0.6118 H         1 <0>         0.1871
     39 H7          2.6459   -1.0993   -2.4925 H         1 <0>         0.1255
     40 H8          4.7761   -0.3330   -3.4503 H         1 <0>         0.1564
     41 H9          4.8731   -3.6980    0.1018 H         1 <0>         0.1346
     42 H10         6.4658   -4.3308    0.6240 H         1 <0>         0.1338
     43 H11         8.6490   -5.1826    1.3621 H         1 <0>         0.1397
     44 H12        10.6035   -2.6095   -1.4597 H         1 <0>         0.1278
     45 H13         8.4181   -1.7672   -2.2025 H         1 <0>         0.1429
     46 H14        12.1640   -3.3245   -0.8216 H         1 <0>         0.4009
     47 H15        13.4266   -5.5581    0.5755 H         1 <0>         0.0919
     48 H16        14.0256   -2.6497    1.2933 H         1 <0>         0.0749
     49 H17        13.2929   -3.8686    2.3655 H         1 <0>         0.0805
     50 H18        15.7405   -3.6044    2.7874 H         1 <0>         0.0987
     51 H19        15.3341   -5.2450    2.2286 H         1 <0>         0.0546
     52 H20        16.6512   -4.6385   -1.1018 H         1 <0>         0.1005
     53 H21        15.8704   -5.8539   -0.0616 H         1 <0>         0.0549
     54 H22        14.2373   -4.9410   -1.6676 H         1 <0>         0.0820
     55 H23        14.5874   -3.2875   -1.1056 H         1 <0>         0.0791
@<TRIPOS>BOND
     1    1    6 ar
     2    1    2 ar
     3    1   34 1
     4    2    3 ar
     5    2   35 1
     6    3    4 ar
     7    3   36 1
     8    4    5 ar
     9    5    6 ar
    10    5    7 1
    11    6   37 1
    12    7   12 2
    13    7    8 1
    14    8    9 2
    15    8   13 1
    16    9   10 1
    17    9   38 1
    18   10   11 1
    19   10   12 1
    20   13   18 ar
    21   13   14 ar
    22   14   15 ar
    23   14   39 1
    24   15   16 ar
    25   15   40 1
    26   16   17 ar
    27   17   18 ar
    28   17   19 1
    29   18   41 1
    30   19   24 ar
    31   19   20 ar
    32   20   21 ar
    33   20   42 1
    34   21   22 ar
    35   21   43 1
    36   22   23 ar
    37   22   25 1
    38   23   24 ar
    39   23   44 1
    40   24   45 1
    41   25   26 2
    42   25   27 am
    43   27   28 1
    44   27   46 1
    45   28   33 1
    46   28   29 1
    47   28   47 1
    48   29   30 1
    49   29   48 1
    50   29   49 1
    51   30   31 1
    52   30   50 1
    53   30   51 1
    54   31   32 1
    55   32   33 1
    56   32   52 1
    57   32   53 1
    58   33   54 1
    59   33   55 1
@<TRIPOS>MOLECULE
CHEMBL202887__1
   55    59     0     0     0
SMALL
USER_CHARGES

@<TRIPOS>ATOM
      1 C1         -0.0167    1.3791    0.0096 C.ar      1 <0>        -0.0684
      2 C2          1.1939    2.0588    0.0017 C.ar      1 <0>        -0.1602
      3 C3          2.3757    1.3409   -0.0134 C.ar      1 <0>         0.1103
      4 N1          2.3675    0.0237   -0.0204 N.ar      1 <0>        -0.4501
      5 C4          1.2315   -0.6652   -0.0133 C.ar      1 <0>         0.1739
      6 C5          0.0021   -0.0041    0.0020 C.ar      1 <0>        -0.1576
      7 C6          1.2697   -2.1418   -0.0216 C.2       1 <0>         0.1464
      8 C7          2.2981   -2.9391   -0.5076 C.2       1 <0>        -0.1669
      9 C8          1.9146   -4.2782   -0.3154 C.2       1 <0>         0.0700
     10 N2          0.7360   -4.2961    0.2479 N.2       1 <0>        -0.2694
     11 H1         -0.5340   -2.7115    0.8562 H         1 <0>         0.4434
     12 N3          0.3056   -2.9800    0.4513 N.pl3     1 <0>        -0.4602
     13 C9          3.5637   -2.4663   -1.1163 C.ar      1 <0>         0.0614
     14 C10         3.5560   -1.5071   -2.1355 C.ar      1 <0>        -0.1376
     15 C11         4.7548   -1.0907   -2.6779 C.ar      1 <0>         0.1073
     16 N4          5.9009   -1.5820   -2.2508 N.ar      1 <0>        -0.4777
     17 C12         5.9583   -2.4931   -1.2870 C.ar      1 <0>         0.1602
     18 C13         4.7959   -2.9619   -0.6839 C.ar      1 <0>        -0.1461
     19 C14         7.2754   -3.0120   -0.8448 C.ar      1 <0>        -0.0153
     20 C15         7.3428   -3.9735    0.1634 C.ar      1 <0>        -0.1101
     21 C16         8.5652   -4.4560    0.5747 C.ar      1 <0>        -0.0595
     22 C17         9.7378   -3.9825   -0.0184 C.ar      1 <0>        -0.1311
     23 C18         9.6691   -3.0200   -1.0282 C.ar      1 <0>        -0.0901
     24 C19         8.4455   -2.5424   -1.4414 C.ar      1 <0>        -0.0886
     25 C20        11.0503   -4.4993    0.4226 C.2       1 <0>         0.5606
     26 O1         11.1096   -5.3367    1.3017 O.2       1 <0>        -0.5337
     27 N5         12.1814   -4.0421   -0.1500 N.am      1 <0>        -0.7227
     28 C21        13.4825   -4.5543    0.2871 C.3       1 <0>         0.1439
     29 C22        13.9639   -3.7585    1.5042 C.3       1 <0>        -0.1673
     30 C23        15.3580   -4.2478    1.9052 C.3       1 <0>         0.0629
     31 O2         16.2487   -4.1044    0.7970 O.3       1 <0>        -0.3812
     32 C24        15.8747   -4.8637   -0.3544 C.3       1 <0>         0.0641
     33 C25        14.5013   -4.3991   -0.8462 C.3       1 <0>        -0.1648
     34 H2         -0.9523    1.9183    0.0259 H         1 <0>         0.1420
     35 H3          1.2124    3.1386    0.0070 H         1 <0>         0.1419
     36 H4          3.3185    1.8676   -0.0200 H         1 <0>         0.1635
     37 H5         -0.9212   -0.5644    0.0082 H         1 <0>         0.1336
     38 H6          2.4967   -5.1462   -0.5877 H         1 <0>         0.1935
     39 H7          2.6229   -1.0978   -2.4935 H         1 <0>         0.1240
     40 H8          4.7538   -0.3510   -3.4648 H         1 <0>         0.1559
     41 H9          4.8450   -3.6997    0.1032 H         1 <0>         0.1367
     42 H10         6.4360   -4.3395    0.6219 H         1 <0>         0.1349
     43 H11         8.6173   -5.2000    1.3558 H         1 <0>         0.1401
     44 H12        10.5752   -2.6533   -1.4874 H         1 <0>         0.1276
     45 H13         8.3919   -1.8009   -2.2248 H         1 <0>         0.1426
     46 H14        12.1341   -3.3739   -0.8516 H         1 <0>         0.4008
     47 H15        13.3894   -5.6075    0.5520 H         1 <0>         0.0920
     48 H16        14.0082   -2.6990    1.2522 H         1 <0>         0.0748
     49 H17        13.2728   -3.9080    2.3337 H         1 <0>         0.0805
     50 H18        15.7235   -3.6559    2.7443 H         1 <0>         0.0987
     51 H19        15.3053   -5.2970    2.1958 H         1 <0>         0.0547
     52 H20        16.6124   -4.7155   -1.1430 H         1 <0>         0.1005
     53 H21        15.8287   -5.9210   -0.0933 H         1 <0>         0.0550
     54 H22        14.1946   -5.0068   -1.6975 H         1 <0>         0.0821
     55 H23        14.5565   -3.3525   -1.1456 H         1 <0>         0.0790
@<TRIPOS>BOND
     1    1    6 ar
     2    1    2 ar
     3    1   34 1
     4    2    3 ar
     5    2   35 1
     6    3    4 ar
     7    3   36 1
     8    4    5 ar
     9    5    6 ar
    10    5    7 1
    11    6   37 1
    12    7    8 2
    13    7   12 1
    14    8    9 1
    15    8   13 1
    16    9   10 2
    17    9   38 1
    18   10   12 1
    19   11   12 1
    20   13   18 ar
    21   13   14 ar
    22   14   15 ar
    23   14   39 1
    24   15   16 ar
    25   15   40 1
    26   16   17 ar
    27   17   18 ar
    28   17   19 1
    29   18   41 1
    30   19   24 ar
    31   19   20 ar
    32   20   21 ar
    33   20   42 1
    34   21   22 ar
    35   21   43 1
    36   22   23 ar
    37   22   25 1
    38   23   24 ar
    39   23   44 1
    40   24   45 1
    41   25   26 2
    42   25   27 am
    43   27   28 1
    44   27   46 1
    45   28   33 1
    46   28   29 1
    47   28   47 1
    48   29   30 1
    49   29   48 1
    50   29   49 1
    51   30   31 1
    52   30   50 1
    53   30   51 1
    54   31   32 1
    55   32   33 1
    56   32   52 1
    57   32   53 1
    58   33   54 1
    59   33   55 1
@<TRIPOS>MOLECULE
CHEMBL205271
   58    62     0     0     0
SMALL
USER_CHARGES

@<TRIPOS>ATOM
      1 C1         -1.2467    1.1554   -0.1452 C.3       1 <0>         0.0674
      2 N1         -0.5788   -0.1464   -0.0710 N.am      1 <0>        -0.6063
      3 C2         -0.4436   -0.8278    1.2187 C.3       1 <0>         0.1384
      4 C3         -1.8328   -1.0822    1.8120 C.3       1 <0>        -0.1655
      5 C4         -1.6794   -1.7229    3.1939 C.3       1 <0>         0.0633
      6 O1         -0.8989   -0.8667    4.0305 O.3       1 <0>        -0.3807
      7 C5          0.4262   -0.6314    3.5499 C.3       1 <0>         0.0632
      8 C6          0.3575    0.0531    2.1823 C.3       1 <0>        -0.1649
      9 C7         -0.0887   -0.7170   -1.1894 C.2       1 <0>         0.5614
     10 O2          0.3697   -1.8421   -1.1469 O.2       1 <0>        -0.5329
     11 C8         -0.1087    0.0250   -2.4672 C.ar      1 <0>        -0.1268
     12 C9          0.0892    1.4076   -2.4757 C.ar      1 <0>        -0.0950
     13 C10         0.0708    2.0980   -3.6670 C.ar      1 <0>        -0.0886
     14 C11        -0.1452    1.4171   -4.8650 C.ar      1 <0>        -0.0172
     15 C12        -0.3429    0.0363   -4.8577 C.ar      1 <0>        -0.1096
     16 C13        -0.3197   -0.6567   -3.6679 C.ar      1 <0>        -0.0647
     17 C14        -0.1652    2.1617   -6.1474 C.ar      1 <0>         0.1604
     18 C15        -0.3869    1.4771   -7.3377 C.ar      1 <0>        -0.1503
     19 C16        -0.4029    2.1939   -8.5359 C.ar      1 <0>         0.0624
     20 C17        -0.1940    3.5763   -8.4840 C.ar      1 <0>        -0.1353
     21 C18         0.0190    4.1802   -7.2614 C.ar      1 <0>         0.1076
     22 N2          0.0232    3.4758   -6.1473 N.ar      1 <0>        -0.4780
     23 C19        -0.6348    1.5077   -9.8297 C.2       1 <0>        -0.1819
     24 C20         0.0072    0.3914  -10.2769 C.2       1 <0>         0.0823
     25 N3         -0.4906    0.0875  -11.4923 N.pl3     1 <0>        -0.4599
     26 H1         -0.2173   -0.6606  -12.0460 H         1 <0>         0.4481
     27 N4         -1.4691    1.0335  -11.8197 N.2       1 <0>        -0.2691
     28 C21        -1.5696    1.8890  -10.8259 C.2       1 <0>         0.1408
     29 C22        -2.4920    3.0475  -10.7605 C.ar      1 <0>         0.1903
     30 C23        -2.9687    3.6190  -11.9391 C.ar      1 <0>        -0.1392
     31 C24        -3.8294    4.6997  -11.8620 C.ar      1 <0>        -0.0755
     32 C25        -4.1862    5.1745  -10.6074 C.ar      1 <0>        -0.1624
     33 C26        -3.6760    4.5596   -9.4794 C.ar      1 <0>         0.1039
     34 N5         -2.8617    3.5286   -9.5805 N.ar      1 <0>        -0.4561
     35 H2         -0.5285    1.9453    0.0751 H         1 <0>         0.0615
     36 H3         -1.6500    1.3003   -1.1474 H         1 <0>         0.0833
     37 H4         -2.0583    1.1893    0.5815 H         1 <0>         0.0737
     38 H5          0.0733   -1.7770    1.0772 H         1 <0>         0.1041
     39 H6         -2.3673   -0.1370    1.9060 H         1 <0>         0.0775
     40 H7         -2.3903   -1.7537    1.1590 H         1 <0>         0.0787
     41 H8         -2.6639   -1.8670    3.6390 H         1 <0>         0.0992
     42 H9         -1.1807   -2.6870    3.0943 H         1 <0>         0.0546
     43 H10         0.9586    0.0108    4.2515 H         1 <0>         0.0994
     44 H11         0.9525   -1.5812    3.4550 H         1 <0>         0.0544
     45 H12         1.3663    0.1936    1.7942 H         1 <0>         0.0782
     46 H13        -0.1329    1.0213    2.2838 H         1 <0>         0.0771
     47 H14         0.2561    1.9351   -1.5482 H         1 <0>         0.1365
     48 H15         0.2234    3.1671   -3.6737 H         1 <0>         0.1427
     49 H16        -0.5100   -0.4900   -5.7858 H         1 <0>         0.1332
     50 H17        -0.4686   -1.7264   -3.6629 H         1 <0>         0.1349
     51 H18        -0.5436    0.4086   -7.3353 H         1 <0>         0.1342
     52 H19        -0.1991    4.1640   -9.3901 H         1 <0>         0.1254
     53 H20         0.1811    5.2470   -7.2164 H         1 <0>         0.1562
     54 H21         0.7779   -0.1527   -9.7511 H         1 <0>         0.1871
     55 H22        -2.6701    3.2242  -12.8990 H         1 <0>         0.1398
     56 H23        -4.2148    5.1636  -12.7579 H         1 <0>         0.1396
     57 H24        -4.8559    6.0165  -10.5135 H         1 <0>         0.1389
     58 H25        -3.9515    4.9270   -8.5018 H         1 <0>         0.1602
@<TRIPOS>BOND
     1    1    2 1
     2    1   35 1
     3    1   36 1
     4    1   37 1
     5    2    3 1
     6    2    9 am
     7    3    8 1
     8    3    4 1
     9    3   38 1
    10    4    5 1
    11    4   39 1
    12    4   40 1
    13    5    6 1
    14    5   41 1
    15    5   42 1
    16    6    7 1
    17    7    8 1
    18    7   43 1
    19    7   44 1
    20    8   45 1
    21    8   46 1
    22    9   10 2
    23    9   11 1
    24   11   16 ar
    25   11   12 ar
    26   12   13 ar
    27   12   47 1
    28   13   14 ar
    29   13   48 1
    30   14   15 ar
    31   14   17 1
    32   15   16 ar
    33   15   49 1
    34   16   50 1
    35   17   22 ar
    36   17   18 ar
    37   18   19 ar
    38   18   51 1
    39   19   20 ar
    40   19   23 1
    41   20   21 ar
    42   20   52 1
    43   21   22 ar
    44   21   53 1
    45   23   28 1
    46   23   24 2
    47   24   25 1
    48   24   54 1
    49   25   26 1
    50   25   27 1
    51   27   28 2
    52   28   29 1
    53   29   34 ar
    54   29   30 ar
    55   30   31 ar
    56   30   55 1
    57   31   32 ar
    58   31   56 1
    59   32   33 ar
    60   32   57 1
    61   33   34 ar
    62   33   58 1
@<TRIPOS>MOLECULE
CHEMBL205271__1
   58    62     0     0     0
SMALL
USER_CHARGES

@<TRIPOS>ATOM
      1 C1         -1.2467    1.1554   -0.1452 C.3       1 <0>         0.0676
      2 N1         -0.5788   -0.1464   -0.0710 N.am      1 <0>        -0.6065
      3 C2         -0.4436   -0.8278    1.2187 C.3       1 <0>         0.1384
      4 C3         -1.8328   -1.0822    1.8120 C.3       1 <0>        -0.1655
      5 C4         -1.6794   -1.7229    3.1939 C.3       1 <0>         0.0633
      6 O1         -0.8989   -0.8667    4.0305 O.3       1 <0>        -0.3808
      7 C5          0.4262   -0.6314    3.5499 C.3       1 <0>         0.0632
      8 C6          0.3575    0.0531    2.1823 C.3       1 <0>        -0.1649
      9 C7         -0.0887   -0.7170   -1.1894 C.2       1 <0>         0.5613
     10 O2          0.3697   -1.8421   -1.1469 O.2       1 <0>        -0.5324
     11 C8         -0.1087    0.0250   -2.4672 C.ar      1 <0>        -0.1265
     12 C9          0.0892    1.4076   -2.4757 C.ar      1 <0>        -0.0954
     13 C10         0.0708    2.0980   -3.6670 C.ar      1 <0>        -0.0886
     14 C11        -0.1456    1.4171   -4.8649 C.ar      1 <0>        -0.0179
     15 C12        -0.3433    0.0364   -4.8576 C.ar      1 <0>        -0.1088
     16 C13        -0.3197   -0.6567   -3.6679 C.ar      1 <0>        -0.0645
     17 C14        -0.1661    2.1618   -6.1473 C.ar      1 <0>         0.1614
     18 C15        -0.3882    1.4773   -7.3376 C.ar      1 <0>        -0.1467
     19 C16        -0.4042    2.1943   -8.5360 C.ar      1 <0>         0.0616
     20 C17        -0.1949    3.5771   -8.4838 C.ar      1 <0>        -0.1385
     21 C18         0.0185    4.1805   -7.2611 C.ar      1 <0>         0.1075
     22 N2          0.0223    3.4759   -6.1472 N.ar      1 <0>        -0.4778
     23 C19        -0.6364    1.5087   -9.8292 C.2       1 <0>        -0.1667
     24 C20         0.0281    0.3604  -10.2951 C.2       1 <0>         0.0700
     25 N3         -0.4480    0.0538  -11.4724 N.2       1 <0>        -0.2693
     26 H1         -1.9490    0.9835  -12.6458 H         1 <0>         0.4433
     27 N4         -1.4359    0.9814  -11.8226 N.pl3     1 <0>        -0.4605
     28 C21        -1.5551    1.8775  -10.8036 C.2       1 <0>         0.1461
     29 C22        -2.4834    3.0250  -10.7466 C.ar      1 <0>         0.1743
     30 C23        -2.9624    3.5880  -11.9309 C.ar      1 <0>        -0.1578
     31 C24        -3.8314    4.6619  -11.8606 C.ar      1 <0>        -0.0684
     32 C25        -4.1949    5.1401  -10.6089 C.ar      1 <0>        -0.1603
     33 C26        -3.6827    4.5351   -9.4759 C.ar      1 <0>         0.1103
     34 N5         -2.8605    3.5102   -9.5687 N.ar      1 <0>        -0.4501
     35 H2         -0.5285    1.9453    0.0751 H         1 <0>         0.0614
     36 H3         -1.6500    1.3003   -1.1474 H         1 <0>         0.0832
     37 H4         -2.0583    1.1893    0.5815 H         1 <0>         0.0735
     38 H5          0.0733   -1.7770    1.0772 H         1 <0>         0.1041
     39 H6         -2.3673   -0.1370    1.9060 H         1 <0>         0.0773
     40 H7         -2.3903   -1.7537    1.1590 H         1 <0>         0.0787
     41 H8         -2.6639   -1.8670    3.6390 H         1 <0>         0.0991
     42 H9         -1.1807   -2.6870    3.0943 H         1 <0>         0.0546
     43 H10         0.9586    0.0108    4.2515 H         1 <0>         0.0994
     44 H11         0.9525   -1.5812    3.4550 H         1 <0>         0.0544
     45 H12         1.3663    0.1936    1.7942 H         1 <0>         0.0783
     46 H13        -0.1329    1.0213    2.2838 H         1 <0>         0.0770
     47 H14         0.2561    1.9351   -1.5482 H         1 <0>         0.1363
     48 H15         0.2238    3.1671   -3.6738 H         1 <0>         0.1424
     49 H16        -0.5112   -0.4898   -5.7857 H         1 <0>         0.1343
     50 H17        -0.4683   -1.7264   -3.6629 H         1 <0>         0.1353
     51 H18        -0.5453    0.4088   -7.3351 H         1 <0>         0.1363
     52 H19        -0.1998    4.1650   -9.3898 H         1 <0>         0.1239
     53 H20         0.1806    5.2473   -7.2159 H         1 <0>         0.1558
     54 H21         0.8023   -0.1775   -9.7683 H         1 <0>         0.1934
     55 H22        -2.6586    3.1910  -12.8882 H         1 <0>         0.1335
     56 H23        -4.2183    5.1186  -12.7596 H         1 <0>         0.1419
     57 H24        -4.8713    5.9774  -10.5210 H         1 <0>         0.1418
     58 H25        -3.9641    4.9054   -8.5011 H         1 <0>         0.1635
@<TRIPOS>BOND
     1    1    2 1
     2    1   35 1
     3    1   36 1
     4    1   37 1
     5    2    3 1
     6    2    9 am
     7    3    8 1
     8    3    4 1
     9    3   38 1
    10    4    5 1
    11    4   39 1
    12    4   40 1
    13    5    6 1
    14    5   41 1
    15    5   42 1
    16    6    7 1
    17    7    8 1
    18    7   43 1
    19    7   44 1
    20    8   45 1
    21    8   46 1
    22    9   10 2
    23    9   11 1
    24   11   16 ar
    25   11   12 ar
    26   12   13 ar
    27   12   47 1
    28   13   14 ar
    29   13   48 1
    30   14   15 ar
    31   14   17 1
    32   15   16 ar
    33   15   49 1
    34   16   50 1
    35   17   22 ar
    36   17   18 ar
    37   18   19 ar
    38   18   51 1
    39   19   20 ar
    40   19   23 1
    41   20   21 ar
    42   20   52 1
    43   21   22 ar
    44   21   53 1
    45   23   24 1
    46   23   28 2
    47   24   25 2
    48   24   54 1
    49   25   27 1
    50   26   27 1
    51   27   28 1
    52   28   29 1
    53   29   34 ar
    54   29   30 ar
    55   30   31 ar
    56   30   55 1
    57   31   32 ar
    58   31   56 1
    59   32   33 ar
    60   32   57 1
    61   33   34 ar
    62   33   58 1
@<TRIPOS>MOLECULE
CHEMBL409525
   56    60     0     0     0
SMALL
USER_CHARGES

@<TRIPOS>ATOM
      1 C1         -0.0178    1.4648    0.0101 C.3       1 <0>        -0.0544
      2 N1          0.0021   -0.0041    0.0020 N.4       1 <0>        -0.3890
      3 C2          0.6897   -0.4778   -1.2066 C.3       1 <0>        -0.0473
      4 C3          0.7126   -0.4907    1.1921 C.3       1 <0>        -0.0016
      5 C4         -0.0711   -0.1034    2.4478 C.3       1 <0>         0.0242
      6 O1         -1.3280   -0.7834    2.4535 O.3       1 <0>        -0.3264
      7 C5         -2.1515   -0.5482    3.5079 C.ar      1 <0>         0.1253
      8 C6         -1.7486    0.3320    4.5167 C.ar      1 <0>        -0.2042
      9 C7         -2.5554    0.5844    5.5834 C.ar      1 <0>        -0.0333
     10 C8         -3.8054   -0.0425    5.6764 C.ar      1 <0>        -0.1125
     11 C9         -4.6695    0.1996    6.7744 C.ar      1 <0>         0.0965
     12 C10        -5.8931   -0.4595    6.7952 C.ar      1 <0>        -0.1533
     13 C11        -6.2270   -1.3203    5.7585 C.ar      1 <0>         0.1579
     14 N2         -5.4174   -1.5356    4.7483 N.ar      1 <0>        -0.4870
     15 C12        -4.2244   -0.9359    4.6612 C.ar      1 <0>         0.1664
     16 C13        -3.3753   -1.1749    3.5681 C.ar      1 <0>        -0.1249
     17 C14        -4.2810    1.1235    7.8628 C.2       1 <0>        -0.1844
     18 C15        -4.5299    2.4679    7.9217 C.2       1 <0>         0.0888
     19 N3         -4.0208    2.9420    9.0720 N.pl3     1 <0>        -0.3819
     20 N4         -3.4209    1.8851    9.7782 N.2       1 <0>        -0.2423
     21 C16        -3.5619    0.7766    9.0884 C.2       1 <0>         0.1432
     22 C17        -3.0801   -0.5704    9.4764 C.ar      1 <0>         0.1939
     23 C18        -2.0069   -0.6935   10.3575 C.ar      1 <0>        -0.1399
     24 C19        -1.5685   -1.9576   10.7103 C.ar      1 <0>        -0.0738
     25 C20        -2.2180   -3.0590   10.1703 C.ar      1 <0>        -0.1612
     26 C21        -3.2760   -2.8641    9.3021 C.ar      1 <0>         0.1046
     27 N5         -3.6773   -1.6493    8.9865 N.ar      1 <0>        -0.4584
     28 C22        -4.2659    4.3902    9.1973 C.3       1 <0>         0.1263
     29 C23        -4.6175    4.8759    7.7753 C.3       1 <0>        -0.1313
     30 C24        -5.1786    3.5871    7.1334 C.3       1 <0>        -0.0687
     31 H1          1.0047    1.8421    0.0024 H         1 <0>         0.1242
     32 H2         -0.5450    1.8259   -0.8730 H         1 <0>         0.1274
     33 H3         -0.5280    1.8163    0.9069 H         1 <0>         0.1214
     34 H4          1.7123   -0.1005   -1.2143 H         1 <0>         0.1227
     35 H5          0.7044   -1.5677   -1.2126 H         1 <0>         0.1250
     36 H6          0.1625   -0.1167   -2.0897 H         1 <0>         0.1259
     37 H7          0.8051   -1.5756    1.1418 H         1 <0>         0.1432
     38 H8          1.7055   -0.0428    1.2310 H         1 <0>         0.1492
     39 H9          0.4987   -0.3857    3.3332 H         1 <0>         0.1088
     40 H10        -0.2405    0.9733    2.4528 H         1 <0>         0.0869
     41 H11        -0.7859    0.8169    4.4489 H         1 <0>         0.1284
     42 H12        -2.2330    1.2660    6.3565 H         1 <0>         0.1303
     43 H13        -6.5801   -0.3031    7.6137 H         1 <0>         0.1386
     44 H14        -7.1801   -1.8276    5.7842 H         1 <0>         0.1643
     45 H15        -3.6794   -1.8494    2.7814 H         1 <0>         0.1434
     46 H16        -1.5242    0.1854   10.7587 H         1 <0>         0.1397
     47 H17        -0.7392   -2.0844   11.3905 H         1 <0>         0.1412
     48 H18        -1.8996   -4.0589   10.4256 H         1 <0>         0.1405
     49 H19        -3.7831   -3.7191    8.8800 H         1 <0>         0.1611
     50 H20        -5.0994    4.5741    9.8752 H         1 <0>         0.0966
     51 H21        -3.3688    4.8945    9.5566 H         1 <0>         0.0983
     52 H22        -5.3757    5.6585    7.8065 H         1 <0>         0.1088
     53 H23        -3.7269    5.2183    7.2484 H         1 <0>         0.0894
     54 H24        -4.8940    3.5287    6.0828 H         1 <0>         0.0961
     55 H25        -6.2628    3.5495    7.2388 H         1 <0>         0.1026
     56 H26        -0.9445   -0.3533    0.0092 H         1 <0>         0.4348
@<TRIPOS>BOND
     1    1    2 1
     2    1   31 1
     3    1   32 1
     4    1   33 1
     5    2    3 1
     6    2    4 1
     7    2   56 1
     8    3   34 1
     9    3   35 1
    10    3   36 1
    11    4    5 1
    12    4   37 1
    13    4   38 1
    14    5    6 1
    15    5   39 1
    16    5   40 1
    17    6    7 1
    18    7   16 ar
    19    7    8 ar
    20    8    9 ar
    21    8   41 1
    22    9   10 ar
    23    9   42 1
    24   10   15 ar
    25   10   11 ar
    26   11   12 ar
    27   11   17 1
    28   12   13 ar
    29   12   43 1
    30   13   14 ar
    31   13   44 1
    32   14   15 ar
    33   15   16 ar
    34   16   45 1
    35   17   21 1
    36   17   18 2
    37   18   30 1
    38   18   19 1
    39   19   20 1
    40   19   28 1
    41   20   21 2
    42   21   22 1
    43   22   27 ar
    44   22   23 ar
    45   23   24 ar
    46   23   46 1
    47   24   25 ar
    48   24   47 1
    49   25   26 ar
    50   25   48 1
    51   26   27 ar
    52   26   49 1
    53   28   29 1
    54   28   50 1
    55   28   51 1
    56   29   30 1
    57   29   52 1
    58   29   53 1
    59   30   54 1
    60   30   55 1
@<TRIPOS>MOLECULE
CHEMBL338713
   33    36     0     0     0
SMALL
USER_CHARGES

@<TRIPOS>ATOM
      1 C1          0.8786    0.0905    2.9024 C.ar      1 <0>        -0.1168
      2 C2          2.0524    0.8380    2.8411 C.ar      1 <0>        -0.1031
      3 C3          2.9643    0.6326    1.8518 C.ar      1 <0>        -0.0925
      4 C4          2.7236   -0.3485    0.8737 C.ar      1 <0>         0.1268
      5 C5          1.5296   -1.1063    0.9399 C.ar      1 <0>        -0.0779
      6 C6          0.6121   -0.8684    1.9716 C.ar      1 <0>        -0.0924
      7 C7          1.2896   -2.0950   -0.0479 C.ar      1 <0>         0.0501
      8 C8          2.2492   -2.2685   -1.0378 C.ar      1 <0>        -0.1059
      9 C9          3.3941   -1.4819   -1.0296 C.ar      1 <0>         0.1302
     10 N1          3.6031   -0.5714   -0.1084 N.ar      1 <0>        -0.4699
     11 C10         0.0582   -2.9152   -0.0250 C.2       1 <0>         0.1484
     12 C11        -0.0182   -4.3742   -0.1165 C.2       1 <0>        -0.1870
     13 C12        -1.3406   -4.7021   -0.0555 C.2       1 <0>         0.0937
     14 N2         -2.0497   -3.5637    0.0640 N.pl3     1 <0>        -0.4683
     15 H1         -3.0160   -3.5097    0.1280 H         1 <0>         0.4467
     16 N3         -1.1766   -2.4715    0.0873 N.2       1 <0>        -0.2677
     17 C13         1.1208   -5.3131   -0.2497 C.ar      1 <0>         0.2120
     18 C14         0.8777   -6.6715   -0.4484 C.ar      1 <0>        -0.1722
     19 C15         1.9511   -7.5354   -0.5714 C.ar      1 <0>        -0.0673
     20 C16         3.2350   -7.0130   -0.4916 C.ar      1 <0>        -0.1824
     21 C17         3.4038   -5.6559   -0.2933 C.ar      1 <0>         0.1103
     22 N4          2.3639   -4.8533   -0.1844 N.ar      1 <0>        -0.4766
     23 H2          0.1730    0.2702    3.7000 H         1 <0>         0.1260
     24 H3          2.2417    1.5927    3.5902 H         1 <0>         0.1299
     25 H4          3.8692    1.2212    1.8180 H         1 <0>         0.1363
     26 H5         -0.3011   -1.4421    2.0292 H         1 <0>         0.1278
     27 H6          2.1059   -3.0110   -1.8089 H         1 <0>         0.1346
     28 H7          4.1340   -1.6246   -1.8033 H         1 <0>         0.1608
     29 H8         -1.7483   -5.7014   -0.0965 H         1 <0>         0.1882
     30 H9         -0.1344   -7.0441   -0.5052 H         1 <0>         0.1317
     31 H10         1.7940   -8.5927   -0.7256 H         1 <0>         0.1352
     32 H11         4.0939   -7.6613   -0.5834 H         1 <0>         0.1346
     33 H12         4.4013   -5.2467   -0.2305 H         1 <0>         0.1567
@<TRIPOS>BOND
     1    1    6 ar
     2    1    2 ar
     3    1   23 1
     4    2    3 ar
     5    2   24 1
     6    3    4 ar
     7    3   25 1
     8    4   10 ar
     9    4    5 ar
    10    5    6 ar
    11    5    7 ar
    12    6   26 1
    13    7    8 ar
    14    7   11 1
    15    8    9 ar
    16    8   27 1
    17    9   10 ar
    18    9   28 1
    19   11   16 2
    20   11   12 1
    21   12   13 2
    22   12   17 1
    23   13   14 1
    24   13   29 1
    25   14   15 1
    26   14   16 1
    27   17   22 ar
    28   17   18 ar
    29   18   19 ar
    30   18   30 1
    31   19   20 ar
    32   19   31 1
    33   20   21 ar
    34   20   32 1
    35   21   22 ar
    36   21   33 1
@<TRIPOS>MOLECULE
CHEMBL338713__1
   33    36     0     0     0
SMALL
USER_CHARGES

@<TRIPOS>ATOM
      1 C1         -0.0164    1.3593    0.0095 C.ar      1 <0>        -0.1147
      2 C2          1.1702    2.0885    0.0021 C.ar      1 <0>        -0.1014
      3 C3          2.3794    1.4634   -0.0132 C.ar      1 <0>        -0.0918
      4 C4          2.4378    0.0587   -0.0212 C.ar      1 <0>         0.1269
      5 C5          1.2281   -0.6776   -0.0132 C.ar      1 <0>        -0.0463
      6 C6          0.0021   -0.0041    0.0020 C.ar      1 <0>        -0.0807
      7 C7          1.3010   -2.1392   -0.0216 C.ar      1 <0>         0.0370
      8 C8          2.5714   -2.7130   -0.0372 C.ar      1 <0>        -0.1539
      9 C9          3.6910   -1.8932   -0.0439 C.ar      1 <0>         0.1357
     10 N1          3.6087   -0.5852   -0.0358 N.ar      1 <0>        -0.4679
     11 C10         0.0833   -2.9691   -0.0135 C.2       1 <0>         0.1625
     12 C11        -0.8774   -3.0397   -1.0173 C.2       1 <0>        -0.1783
     13 C12        -1.8588   -3.9517   -0.5916 C.2       1 <0>         0.0762
     14 N2         -1.5225   -4.4054    0.5866 N.2       1 <0>        -0.2753
     15 H1          0.1591   -3.9849    1.8071 H         1 <0>         0.4450
     16 N3         -0.3133   -3.8183    0.9764 N.pl3     1 <0>        -0.4591
     17 C13        -0.8683   -2.2924   -2.2961 C.ar      1 <0>         0.2073
     18 C14        -1.9110   -2.4655   -3.2060 C.ar      1 <0>        -0.1664
     19 C15        -1.8883   -1.7606   -4.3960 C.ar      1 <0>        -0.0687
     20 C16        -0.8229   -0.9042   -4.6391 C.ar      1 <0>        -0.1810
     21 C17         0.1774   -0.7804   -3.6933 C.ar      1 <0>         0.1097
     22 N4          0.1295   -1.4593   -2.5647 N.ar      1 <0>        -0.4739
     23 H2         -0.9625    1.8800    0.0259 H         1 <0>         0.1251
     24 H3          1.1303    3.1678    0.0082 H         1 <0>         0.1297
     25 H4          3.2900    2.0440   -0.0195 H         1 <0>         0.1362
     26 H5         -0.9237   -0.5603    0.0082 H         1 <0>         0.1213
     27 H6          2.6833   -3.7871   -0.0436 H         1 <0>         0.1377
     28 H7          4.6690   -2.3512   -0.0556 H         1 <0>         0.1612
     29 H8         -2.7431   -4.2304   -1.1455 H         1 <0>         0.1933
     30 H9         -2.7245   -3.1406   -2.9848 H         1 <0>         0.1342
     31 H10        -2.6815   -1.8742   -5.1201 H         1 <0>         0.1352
     32 H11        -0.7761   -0.3401   -5.5589 H         1 <0>         0.1334
     33 H12         1.0075   -0.1152   -3.8799 H         1 <0>         0.1519
@<TRIPOS>BOND
     1    1    6 ar
     2    1    2 ar
     3    1   23 1
     4    2    3 ar
     5    2   24 1
     6    3    4 ar
     7    3   25 1
     8    4   10 ar
     9    4    5 ar
    10    5    6 ar
    11    5    7 ar
    12    6   26 1
    13    7    8 ar
    14    7   11 1
    15    8    9 ar
    16    8   27 1
    17    9   10 ar
    18    9   28 1
    19   11   12 2
    20   11   16 1
    21   12   13 1
    22   12   17 1
    23   13   14 2
    24   13   29 1
    25   14   16 1
    26   15   16 1
    27   17   22 ar
    28   17   18 ar
    29   18   19 ar
    30   18   30 1
    31   19   20 ar
    32   19   31 1
    33   20   21 ar
    34   20   32 1
    35   21   22 ar
    36   21   33 1
@<TRIPOS>MOLECULE
CHEMBL341280
   33    36     0     0     0
SMALL
USER_CHARGES

@<TRIPOS>ATOM
      1 C1         -0.0164    1.3586    0.0095 C.ar      1 <0>        -0.1262
      2 C2          1.1699    2.0883    0.0021 C.ar      1 <0>        -0.0919
      3 C3          2.3786    1.4625   -0.0128 C.ar      1 <0>        -0.1001
      4 C4          2.4369    0.0577   -0.0208 C.ar      1 <0>         0.1346
      5 C5          1.2288   -0.6801   -0.0132 C.ar      1 <0>        -0.0613
      6 C6          0.0021   -0.0041    0.0020 C.ar      1 <0>        -0.0503
      7 C7          1.2910   -2.0973   -0.0213 C.ar      1 <0>         0.0578
      8 C8          2.5481   -2.6911   -0.0364 C.ar      1 <0>        -0.1718
      9 C9          3.6840   -1.8927   -0.0430 C.ar      1 <0>         0.1282
     10 N1          3.6109   -0.5824   -0.0349 N.ar      1 <0>        -0.4769
     11 C10         0.0597   -2.9159   -0.0135 C.2       1 <0>        -0.1573
     12 C11        -0.3636   -3.7778    1.0157 C.2       1 <0>         0.0717
     13 N2         -1.4949   -4.3246    0.6599 N.2       1 <0>        -0.2654
     14 N3         -1.8572   -3.8487   -0.6053 N.pl3     1 <0>        -0.4588
     15 H1         -2.6542   -4.0961   -1.0997 H         1 <0>         0.4436
     16 C12        -0.8996   -2.9734   -1.0192 C.2       1 <0>         0.1373
     17 C13        -0.8811   -2.2296   -2.2948 C.ar      1 <0>         0.1856
     18 C14        -1.5751   -2.7294   -3.3981 C.ar      1 <0>        -0.1459
     19 C15        -1.5486   -2.0210   -4.5862 C.ar      1 <0>        -0.0593
     20 C16        -0.8296   -0.8349   -4.6353 C.ar      1 <0>        -0.1308
     21 C17        -0.1638   -0.3964   -3.5037 C.ar      1 <0>         0.1323
     22 N4         -0.2085   -1.0869   -2.3821 N.ar      1 <0>        -0.4229
     23 Br1         0.8172    1.2190   -3.5660 Br        1 <0>         0.0116
     24 H2         -0.9626    1.8791    0.0259 H         1 <0>         0.1182
     25 H3          1.1302    3.1675    0.0079 H         1 <0>         0.1235
     26 H4          3.2895    2.0428   -0.0187 H         1 <0>         0.1298
     27 H5         -0.9240   -0.5597    0.0082 H         1 <0>         0.1139
     28 H6          2.6405   -3.7671   -0.0426 H         1 <0>         0.1342
     29 H7          4.6559   -2.3636   -0.0547 H         1 <0>         0.1567
     30 H8          0.1592   -3.9568    1.9436 H         1 <0>         0.1946
     31 H9         -2.1246   -3.6563   -3.3253 H         1 <0>         0.1412
     32 H10        -2.0757   -2.3832   -5.4565 H         1 <0>         0.1527
     33 H11        -0.7896   -0.2594   -5.5484 H         1 <0>         0.1513
@<TRIPOS>BOND
     1    1    6 ar
     2    1    2 ar
     3    1   24 1
     4    2    3 ar
     5    2   25 1
     6    3    4 ar
     7    3   26 1
     8    4   10 ar
     9    4    5 ar
    10    5    6 ar
    11    5    7 ar
    12    6   27 1
    13    7    8 ar
    14    7   11 1
    15    8    9 ar
    16    8   28 1
    17    9   10 ar
    18    9   29 1
    19   11   16 2
    20   11   12 1
    21   12   13 2
    22   12   30 1
    23   13   14 1
    24   14   15 1
    25   14   16 1
    26   16   17 1
    27   17   22 ar
    28   17   18 ar
    29   18   19 ar
    30   18   31 1
    31   19   20 ar
    32   19   32 1
    33   20   21 ar
    34   20   33 1
    35   21   22 ar
    36   21   23 1
@<TRIPOS>MOLECULE
CHEMBL341280__1
   33    36     0     0     0
SMALL
USER_CHARGES

@<TRIPOS>ATOM
      1 C1         -0.0164    1.3585    0.0095 C.ar      1 <0>        -0.1255
      2 C2          1.1699    2.0882    0.0021 C.ar      1 <0>        -0.0912
      3 C3          2.3787    1.4625   -0.0128 C.ar      1 <0>        -0.1012
      4 C4          2.4370    0.0577   -0.0209 C.ar      1 <0>         0.1347
      5 C5          1.2290   -0.6802   -0.0133 C.ar      1 <0>        -0.0641
      6 C6          0.0021   -0.0041    0.0020 C.ar      1 <0>        -0.0496
      7 C7          1.2911   -2.0970   -0.0215 C.ar      1 <0>         0.0629
      8 C8          2.5477   -2.6907   -0.0367 C.ar      1 <0>        -0.1758
      9 C9          3.6839   -1.8927   -0.0432 C.ar      1 <0>         0.1282
     10 N1          3.6110   -0.5824   -0.0351 N.ar      1 <0>        -0.4777
     11 C10         0.0591   -2.9160   -0.0137 C.2       1 <0>        -0.1799
     12 C11        -0.3571   -3.7539    0.9815 C.2       1 <0>         0.0842
     13 N2         -1.5229   -4.3082    0.6007 N.pl3     1 <0>        -0.4635
     14 N3         -1.8771   -3.8268   -0.6634 N.2       1 <0>        -0.2603
     15 H1         -2.0376   -4.9436    1.1224 H         1 <0>         0.4473
     16 C12        -0.9543   -2.9810   -1.0683 C.2       1 <0>         0.1352
     17 C13        -0.9411   -2.2379   -2.3506 C.ar      1 <0>         0.2030
     18 C14        -1.6372   -2.7412   -3.4483 C.ar      1 <0>        -0.1267
     19 C15        -1.6163   -2.0362   -4.6391 C.ar      1 <0>        -0.0664
     20 C16        -0.8994   -0.8495   -4.6942 C.ar      1 <0>        -0.1314
     21 C17        -0.2308   -0.4075   -3.5663 C.ar      1 <0>         0.1279
     22 N4         -0.2712   -1.0960   -2.4426 N.ar      1 <0>        -0.4279
     23 Br1         0.7479    1.2090   -3.6353 Br        1 <0>         0.0049
     24 H2         -0.9626    1.8790    0.0259 H         1 <0>         0.1186
     25 H3          1.1302    3.1675    0.0079 H         1 <0>         0.1236
     26 H4          3.2895    2.0428   -0.0188 H         1 <0>         0.1298
     27 H5         -0.9240   -0.5597    0.0082 H         1 <0>         0.1154
     28 H6          2.6399   -3.7668   -0.0429 H         1 <0>         0.1327
     29 H7          4.6556   -2.3638   -0.0550 H         1 <0>         0.1561
     30 H8          0.1592   -3.9393    1.9118 H         1 <0>         0.1886
     31 H9         -2.1850   -3.6687   -3.3707 H         1 <0>         0.1478
     32 H10        -2.1460   -2.4019   -5.5063 H         1 <0>         0.1510
     33 H11        -0.8633   -0.2763   -5.6089 H         1 <0>         0.1491
@<TRIPOS>BOND
     1    1    6 ar
     2    1    2 ar
     3    1   24 1
     4    2    3 ar
     5    2   25 1
     6    3    4 ar
     7    3   26 1
     8    4   10 ar
     9    4    5 ar
    10    5    6 ar
    11    5    7 ar
    12    6   27 1
    13    7    8 ar
    14    7   11 1
    15    8    9 ar
    16    8   28 1
    17    9   10 ar
    18    9   29 1
    19   11   16 1
    20   11   12 2
    21   12   30 1
    22   12   13 1
    23   13   14 1
    24   13   15 1
    25   14   16 2
    26   16   17 1
    27   17   22 ar
    28   17   18 ar
    29   18   19 ar
    30   18   31 1
    31   19   20 ar
    32   19   32 1
    33   20   21 ar
    34   20   33 1
    35   21   22 ar
    36   21   23 1
@<TRIPOS>MOLECULE
CHEMBL1165694
   49    53     0     0     0
SMALL
USER_CHARGES

@<TRIPOS>ATOM
      1 C1         -0.7538    1.6069    0.3240 C.3       1 <0>        -0.1017
      2 C2         -0.5750    0.1138    0.2265 C.ar      1 <0>         0.1334
      3 C3         -0.6852   -0.5074   -1.0040 C.ar      1 <0>        -0.1661
      4 C4         -0.5199   -1.8825   -1.0896 C.ar      1 <0>        -0.0733
      5 C5         -0.2485   -2.5888    0.0694 C.ar      1 <0>        -0.1475
      6 C6         -0.1511   -1.8984    1.2759 C.ar      1 <0>         0.2087
      7 N1         -0.3107   -0.5814    1.3139 N.ar      1 <0>        -0.4490
      8 C7          0.1386   -2.6402    2.5262 C.2       1 <0>         0.1535
      9 C8          0.7597   -2.1117    3.6874 C.2       1 <0>        -0.1705
     10 C9          0.8377   -3.1195    4.6036 C.2       1 <0>         0.0827
     11 N2          0.2960   -4.2224    4.0512 N.pl3     1 <0>        -0.3563
     12 N3         -0.1392   -3.9040    2.7594 N.2       1 <0>        -0.2659
     13 C10         0.1772   -5.5325    4.6959 C.3       1 <0>         0.1755
     14 C11        -1.2623   -5.9777    4.6674 C.ar      1 <0>        -0.1161
     15 C12        -2.1100   -5.6400    5.7078 C.ar      1 <0>        -0.0676
     16 C13        -3.4329   -6.0445    5.6898 C.ar      1 <0>        -0.1212
     17 C14        -3.9159   -6.7877    4.6325 C.ar      1 <0>        -0.0579
     18 C15        -3.0663   -7.1315    3.5793 C.ar      1 <0>        -0.0287
     19 C16        -1.7333   -6.7158    3.6018 C.ar      1 <0>        -0.0340
     20 C17        -3.5608   -7.9028    2.4787 C.1       1 <0>         0.2495
     21 N4         -3.9531   -8.5146    1.6057 N.1       1 <0>        -0.4080
     22 C18         1.2362   -0.7214    3.8709 C.ar      1 <0>         0.2591
     23 C19         0.9140   -0.0339    5.0536 C.ar      1 <0>        -0.1454
     24 C20         1.3458    1.2446    5.2349 C.ar      1 <0>        -0.0441
     25 C21         2.1135    1.8448    4.2139 C.ar      1 <0>         0.0710
     26 C22         2.4033    1.0971    3.0463 C.ar      1 <0>         0.0930
     27 N5          1.9591   -0.1556    2.9228 N.ar      1 <0>        -0.4412
     28 C23         3.1701    1.6998    2.0293 C.ar      1 <0>        -0.0450
     29 C24         3.5999    2.9823    2.2179 C.ar      1 <0>        -0.1611
     30 C25         3.2775    3.6589    3.3921 C.ar      1 <0>         0.1265
     31 N6          2.5640    3.0950    4.3370 N.ar      1 <0>        -0.4647
     32 H1          0.1906    2.1015    0.0968 H         1 <0>         0.0760
     33 H2         -1.5133    1.9292   -0.3882 H         1 <0>         0.0759
     34 H3         -1.0679    1.8701    1.3341 H         1 <0>         0.0731
     35 H4         -0.8982    0.0722   -1.8901 H         1 <0>         0.1352
     36 H5         -0.6016   -2.3903   -2.0392 H         1 <0>         0.1374
     37 H6         -0.1145   -3.6601    0.0392 H         1 <0>         0.1370
     38 H7          1.2592   -3.0463    5.5953 H         1 <0>         0.1851
     39 H8          0.7922   -6.2572    4.1623 H         1 <0>         0.1026
     40 H9          0.5149   -5.4607    5.7298 H         1 <0>         0.1157
     41 H10        -1.7371   -5.0584    6.5379 H         1 <0>         0.1321
     42 H11        -4.0889   -5.7781    6.5053 H         1 <0>         0.1379
     43 H12        -4.9487   -7.1031    4.6198 H         1 <0>         0.1357
     44 H13        -1.0717   -6.9751    2.7885 H         1 <0>         0.1361
     45 H14         0.3244   -0.5189    5.8175 H         1 <0>         0.1405
     46 H15         1.1063    1.7865    6.1379 H         1 <0>         0.1462
     47 H16         3.4119    1.1616    1.1247 H         1 <0>         0.1415
     48 H17         4.1898    3.4717    1.4570 H         1 <0>         0.1423
     49 H18         3.6243    4.6726    3.5280 H         1 <0>         0.1624
@<TRIPOS>BOND
     1    1    2 1
     2    1   32 1
     3    1   33 1
     4    1   34 1
     5    2    7 ar
     6    2    3 ar
     7    3    4 ar
     8    3   35 1
     9    4    5 ar
    10    4   36 1
    11    5    6 ar
    12    5   37 1
    13    6    7 ar
    14    6    8 1
    15    8   12 2
    16    8    9 1
    17    9   10 2
    18    9   22 1
    19   10   11 1
    20   10   38 1
    21   11   12 1
    22   11   13 1
    23   13   14 1
    24   13   39 1
    25   13   40 1
    26   14   19 ar
    27   14   15 ar
    28   15   16 ar
    29   15   41 1
    30   16   17 ar
    31   16   42 1
    32   17   18 ar
    33   17   43 1
    34   18   19 ar
    35   18   20 1
    36   19   44 1
    37   20   21 3
    38   22   27 ar
    39   22   23 ar
    40   23   24 ar
    41   23   45 1
    42   24   25 ar
    43   24   46 1
    44   25   31 ar
    45   25   26 ar
    46   26   27 ar
    47   26   28 ar
    48   28   29 ar
    49   28   47 1
    50   29   30 ar
    51   29   48 1
    52   30   31 ar
    53   30   49 1
@<TRIPOS>MOLECULE
CHEMBL1163955
   50    54     0     0     0
SMALL
USER_CHARGES

@<TRIPOS>ATOM
      1 C1         -0.0184    1.5028    0.0103 C.3       1 <0>        -0.1039
      2 C2          0.0021   -0.0041    0.0020 C.ar      1 <0>         0.1347
      3 C3          0.0056   -0.6794   -1.2046 C.ar      1 <0>        -0.1650
      4 C4          0.0249   -2.0670   -1.2080 C.ar      1 <0>        -0.0725
      5 C5          0.0401   -2.7306    0.0065 C.ar      1 <0>        -0.1479
      6 C6          0.0355   -1.9865    1.1848 C.ar      1 <0>         0.1991
      7 N1          0.0218   -0.6599    1.1444 N.ar      1 <0>        -0.4545
      8 C7          0.0510   -2.6820    2.4936 C.2       1 <0>         0.1348
      9 C8          0.5286   -2.1485    3.7176 C.2       1 <0>        -0.1712
     10 C9          0.3643   -3.1059    4.6734 C.2       1 <0>         0.0700
     11 N2         -0.1878   -4.1869    4.0850 N.pl3     1 <0>        -0.3589
     12 N3         -0.3809   -3.9021    2.7279 N.2       1 <0>        -0.2638
     13 C10        -0.5317   -5.4441    4.7538 C.3       1 <0>         0.1759
     14 C11        -1.9848   -5.7613    4.5108 C.ar      1 <0>        -0.1155
     15 C12        -2.9492   -5.2936    5.3861 C.ar      1 <0>        -0.0679
     16 C13        -4.2853   -5.5800    5.1706 C.ar      1 <0>        -0.1212
     17 C14        -4.6652   -6.3345    4.0798 C.ar      1 <0>        -0.0582
     18 C15        -3.6975   -6.8091    3.1923 C.ar      1 <0>        -0.0287
     19 C16        -2.3509   -6.5122    3.4133 C.ar      1 <0>        -0.0344
     20 C17        -4.0845   -7.5928    2.0580 C.1       1 <0>         0.2495
     21 N4         -4.3914   -8.2145    1.1581 N.1       1 <0>        -0.4078
     22 C18         1.1026   -0.7959    3.9203 C.ar      1 <0>         0.0246
     23 C19         2.1155   -0.3327    3.0649 C.ar      1 <0>        -0.0603
     24 C20         2.6575    0.9014    3.2284 C.ar      1 <0>        -0.0943
     25 C21         2.2067    1.7375    4.2666 C.ar      1 <0>         0.1268
     26 C22         1.1845    1.2782    5.1350 C.ar      1 <0>        -0.0955
     27 C23         0.6329    0.0025    4.9467 C.ar      1 <0>        -0.0956
     28 C24         0.7389    2.1210    6.1713 C.ar      1 <0>        -0.0593
     29 C25         1.3165    3.3528    6.2938 C.ar      1 <0>        -0.1780
     30 C26         2.3168    3.7423    5.4062 C.ar      1 <0>         0.1258
     31 N5          2.7289    2.9552    4.4421 N.ar      1 <0>        -0.4747
     32 H1          1.0042    1.8801    0.0026 H         1 <0>         0.0800
     33 H2         -0.5455    1.8639   -0.8728 H         1 <0>         0.0753
     34 H3         -0.5286    1.8543    0.9071 H         1 <0>         0.0765
     35 H4         -0.0069   -0.1322   -2.1356 H         1 <0>         0.1368
     36 H5          0.0277   -2.6167   -2.1376 H         1 <0>         0.1382
     37 H6          0.0549   -3.8100    0.0406 H         1 <0>         0.1378
     38 H7          0.6292   -3.0153    5.7164 H         1 <0>         0.1819
     39 H8          0.0872   -6.2484    4.3560 H         1 <0>         0.1014
     40 H9         -0.3555   -5.3459    5.8250 H         1 <0>         0.1145
     41 H10        -2.6573   -4.7026    6.2417 H         1 <0>         0.1315
     42 H11        -5.0328   -5.2125    5.8581 H         1 <0>         0.1378
     43 H12        -5.7086   -6.5577    3.9129 H         1 <0>         0.1359
     44 H13        -1.5977   -6.8731    2.7287 H         1 <0>         0.1359
     45 H14         2.4686   -0.9675    2.2656 H         1 <0>         0.1179
     46 H15         3.4357    1.2415    2.5613 H         1 <0>         0.1313
     47 H16        -0.1493   -0.3547    5.6002 H         1 <0>         0.1265
     48 H17        -0.0382    1.8024    6.8503 H         1 <0>         0.1360
     49 H18         0.9977    4.0240    7.0776 H         1 <0>         0.1357
     50 H19         2.7643    4.7192    5.5147 H         1 <0>         0.1570
@<TRIPOS>BOND
     1    1    2 1
     2    1   32 1
     3    1   33 1
     4    1   34 1
     5    2    7 ar
     6    2    3 ar
     7    3    4 ar
     8    3   35 1
     9    4    5 ar
    10    4   36 1
    11    5    6 ar
    12    5   37 1
    13    6    7 ar
    14    6    8 1
    15    8   12 2
    16    8    9 1
    17    9   10 2
    18    9   22 1
    19   10   11 1
    20   10   38 1
    21   11   12 1
    22   11   13 1
    23   13   14 1
    24   13   39 1
    25   13   40 1
    26   14   19 ar
    27   14   15 ar
    28   15   16 ar
    29   15   41 1
    30   16   17 ar
    31   16   42 1
    32   17   18 ar
    33   17   43 1
    34   18   19 ar
    35   18   20 1
    36   19   44 1
    37   20   21 3
    38   22   27 ar
    39   22   23 ar
    40   23   24 ar
    41   23   45 1
    42   24   25 ar
    43   24   46 1
    44   25   31 ar
    45   25   26 ar
    46   26   27 ar
    47   26   28 ar
    48   27   47 1
    49   28   29 ar
    50   28   48 1
    51   29   30 ar
    52   29   49 1
    53   30   31 ar
    54   30   50 1
@<TRIPOS>MOLECULE
CHEMBL409158
   55    60     0     0     0
SMALL
USER_CHARGES

@<TRIPOS>ATOM
      1 C1         -0.0167    1.3795    0.0096 C.ar      1 <0>        -0.0752
      2 C2          1.1938    2.0587    0.0017 C.ar      1 <0>        -0.1638
      3 C3          2.3746    1.3401   -0.0134 C.ar      1 <0>         0.1057
      4 N1          2.3647    0.0224   -0.0204 N.ar      1 <0>        -0.4549
      5 C4          1.2295   -0.6646   -0.0133 C.ar      1 <0>         0.1979
      6 C5          0.0021   -0.0041    0.0020 C.ar      1 <0>        -0.1414
      7 C6          1.2669   -2.1463   -0.0216 C.2       1 <0>         0.1408
      8 C7          2.3520   -2.9862   -0.5281 C.2       1 <0>        -0.1723
      9 C8          1.9636   -4.2847   -0.3387 C.2       1 <0>         0.0860
     10 N2          0.7492   -4.2829    0.2378 N.pl3     1 <0>        -0.3852
     11 N3          0.3346   -2.9536    0.4296 N.2       1 <0>        -0.2461
     12 C9          0.2787   -5.6595    0.4758 C.3       1 <0>         0.1290
     13 C10         1.1569   -6.5586   -0.4198 C.3       1 <0>        -0.1316
     14 C11         2.4383   -5.7063   -0.5593 C.3       1 <0>        -0.0690
     15 C12         3.6223   -2.5223   -1.1283 C.ar      1 <0>         0.0916
     16 C13         4.7474   -2.2978   -0.3430 C.ar      1 <0>        -0.1636
     17 C14         5.9237   -1.8628   -0.9372 C.ar      1 <0>         0.1477
     18 N4          6.0110   -1.6532   -2.2300 N.ar      1 <0>        -0.4857
     19 C15         4.9699   -1.8481   -3.0472 C.ar      1 <0>         0.1708
     20 C16         3.7333   -2.2978   -2.5237 C.ar      1 <0>        -0.1181
     21 C17         2.6458   -2.5070   -3.3827 C.ar      1 <0>        -0.0458
     22 C18         2.7840   -2.2826   -4.7180 C.ar      1 <0>        -0.1961
     23 C19         4.0018   -1.8447   -5.2472 C.ar      1 <0>         0.1461
     24 C20         5.0843   -1.6179   -4.4282 C.ar      1 <0>        -0.1438
     25 O1          4.1143   -1.6288   -6.5836 O.3       1 <0>        -0.3009
     26 C21         2.9522   -1.8695   -7.3797 C.3       1 <0>         0.0491
     27 C22         3.2691   -1.5743   -8.8471 C.3       1 <0>         0.0827
     28 C23         1.9898   -1.7203   -9.6989 C.3       1 <0>        -0.1486
     29 C24         2.5285   -2.3955  -10.9896 C.3       1 <0>        -0.1558
     30 C25         3.6523   -3.2891  -10.4071 C.3       1 <0>         0.0451
     31 O2          4.2259   -2.5208   -9.3375 O.3       1 <0>        -0.3671
     32 H1         -0.9522    1.9188    0.0259 H         1 <0>         0.1394
     33 H2          1.2130    3.1385    0.0070 H         1 <0>         0.1390
     34 H3          3.3180    1.8657   -0.0200 H         1 <0>         0.1607
     35 H4         -0.9212   -0.5643    0.0082 H         1 <0>         0.1388
     36 H5          0.4115   -5.9272    1.5240 H         1 <0>         0.0934
     37 H6         -0.7695   -5.7538    0.1920 H         1 <0>         0.0961
     38 H7          1.3711   -7.5080    0.0708 H         1 <0>         0.1066
     39 H8          0.6878   -6.7197   -1.3905 H         1 <0>         0.0899
     40 H9          2.8632   -5.8164   -1.5570 H         1 <0>         0.0982
     41 H10         3.1679   -5.9871    0.2003 H         1 <0>         0.1009
     42 H11         4.7060   -2.4608    0.7238 H         1 <0>         0.1323
     43 H12         6.7919   -1.6914   -0.3182 H         1 <0>         0.1583
     44 H13         1.7002   -2.8459   -2.9859 H         1 <0>         0.1250
     45 H14         1.9435   -2.4451   -5.3764 H         1 <0>         0.1289
     46 H15         6.0205   -1.2790   -4.8466 H         1 <0>         0.1426
     47 H16         2.6500   -2.9116   -7.2757 H         1 <0>         0.0672
     48 H17         2.1422   -1.2212   -7.0454 H         1 <0>         0.0729
     49 H18         3.6659   -0.5637   -8.9436 H         1 <0>         0.0935
     50 H19         1.2628   -2.3613   -9.2002 H         1 <0>         0.0806
     51 H20         1.5592   -0.7443   -9.9224 H         1 <0>         0.0897
     52 H21         1.7568   -2.9975  -11.4694 H         1 <0>         0.0867
     53 H22         2.9332   -1.6557  -11.6803 H         1 <0>         0.0822
     54 H23         3.2347   -4.2197  -10.0227 H         1 <0>         0.0607
     55 H24         4.4036   -3.4969  -11.1689 H         1 <0>         0.0889
@<TRIPOS>BOND
     1    1    6 ar
     2    1    2 ar
     3    1   32 1
     4    2    3 ar
     5    2   33 1
     6    3    4 ar
     7    3   34 1
     8    4    5 ar
     9    5    6 ar
    10    5    7 1
    11    6   35 1
    12    7   11 2
    13    7    8 1
    14    8    9 2
    15    8   15 1
    16    9   14 1
    17    9   10 1
    18   10   11 1
    19   10   12 1
    20   12   13 1
    21   12   36 1
    22   12   37 1
    23   13   14 1
    24   13   38 1
    25   13   39 1
    26   14   40 1
    27   14   41 1
    28   15   20 ar
    29   15   16 ar
    30   16   17 ar
    31   16   42 1
    32   17   18 ar
    33   17   43 1
    34   18   19 ar
    35   19   24 ar
    36   19   20 ar
    37   20   21 ar
    38   21   22 ar
    39   21   44 1
    40   22   23 ar
    41   22   45 1
    42   23   24 ar
    43   23   25 1
    44   24   46 1
    45   25   26 1
    46   26   27 1
    47   26   47 1
    48   26   48 1
    49   27   31 1
    50   27   28 1
    51   27   49 1
    52   28   29 1
    53   28   50 1
    54   28   51 1
    55   29   30 1
    56   29   52 1
    57   29   53 1
    58   30   31 1
    59   30   54 1
    60   30   55 1
@<TRIPOS>MOLECULE
CHEMBL409158__1
   55    60     0     0     0
SMALL
USER_CHARGES

@<TRIPOS>ATOM
      1 C1         -0.0167    1.3795    0.0096 C.ar      1 <0>        -0.0751
      2 C2          1.1938    2.0587    0.0017 C.ar      1 <0>        -0.1635
      3 C3          2.3746    1.3401   -0.0134 C.ar      1 <0>         0.1059
      4 N1          2.3647    0.0224   -0.0204 N.ar      1 <0>        -0.4549
      5 C4          1.2295   -0.6646   -0.0133 C.ar      1 <0>         0.1975
      6 C5          0.0021   -0.0041    0.0020 C.ar      1 <0>        -0.1413
      7 C6          1.2669   -2.1463   -0.0216 C.2       1 <0>         0.1412
      8 C7          2.3520   -2.9862   -0.5281 C.2       1 <0>        -0.1723
      9 C8          1.9636   -4.2847   -0.3387 C.2       1 <0>         0.0858
     10 N2          0.7492   -4.2829    0.2378 N.pl3     1 <0>        -0.3853
     11 N3          0.3346   -2.9536    0.4296 N.2       1 <0>        -0.2461
     12 C9          0.2787   -5.6595    0.4758 C.3       1 <0>         0.1289
     13 C10         1.1569   -6.5586   -0.4198 C.3       1 <0>        -0.1315
     14 C11         2.4383   -5.7063   -0.5593 C.3       1 <0>        -0.0688
     15 C12         3.6223   -2.5223   -1.1283 C.ar      1 <0>         0.0916
     16 C13         4.7474   -2.2978   -0.3430 C.ar      1 <0>        -0.1635
     17 C14         5.9237   -1.8628   -0.9372 C.ar      1 <0>         0.1477
     18 N4          6.0110   -1.6532   -2.2300 N.ar      1 <0>        -0.4858
     19 C15         4.9699   -1.8481   -3.0472 C.ar      1 <0>         0.1707
     20 C16         3.7333   -2.2978   -2.5237 C.ar      1 <0>        -0.1179
     21 C17         2.6458   -2.5070   -3.3827 C.ar      1 <0>        -0.0457
     22 C18         2.7840   -2.2826   -4.7180 C.ar      1 <0>        -0.1960
     23 C19         4.0018   -1.8447   -5.2472 C.ar      1 <0>         0.1462
     24 C20         5.0843   -1.6179   -4.4282 C.ar      1 <0>        -0.1434
     25 O1          4.1143   -1.6288   -6.5836 O.3       1 <0>        -0.3020
     26 C21         2.9522   -1.8695   -7.3797 C.3       1 <0>         0.0606
     27 C22         3.2691   -1.5743   -8.8471 C.3       1 <0>         0.0828
     28 C23         2.0374   -1.8812   -9.7356 C.3       1 <0>        -0.1495
     29 C24         2.3132   -0.9555  -10.9518 C.3       1 <0>        -0.1550
     30 C25         2.9970    0.2601  -10.2899 C.3       1 <0>         0.0470
     31 O2          3.5237   -0.1725   -9.0300 O.3       1 <0>        -0.3703
     32 H1         -0.9522    1.9188    0.0259 H         1 <0>         0.1395
     33 H2          1.2130    3.1385    0.0070 H         1 <0>         0.1390
     34 H3          3.3180    1.8657   -0.0200 H         1 <0>         0.1607
     35 H4         -0.9212   -0.5643    0.0082 H         1 <0>         0.1387
     36 H5          0.4115   -5.9272    1.5240 H         1 <0>         0.0933
     37 H6         -0.7695   -5.7538    0.1920 H         1 <0>         0.0961
     38 H7          1.3711   -7.5080    0.0708 H         1 <0>         0.1065
     39 H8          0.6878   -6.7197   -1.3905 H         1 <0>         0.0899
     40 H9          2.8632   -5.8164   -1.5570 H         1 <0>         0.0982
     41 H10         3.1679   -5.9871    0.2003 H         1 <0>         0.1008
     42 H11         4.7060   -2.4608    0.7238 H         1 <0>         0.1323
     43 H12         6.7919   -1.6914   -0.3182 H         1 <0>         0.1583
     44 H13         1.7002   -2.8459   -2.9859 H         1 <0>         0.1252
     45 H14         1.9435   -2.4451   -5.3764 H         1 <0>         0.1295
     46 H15         6.0205   -1.2790   -4.8466 H         1 <0>         0.1425
     47 H16         2.6500   -2.9116   -7.2757 H         1 <0>         0.0766
     48 H17         2.1422   -1.2212   -7.0454 H         1 <0>         0.0703
     49 H18         4.1282   -2.1606   -9.1733 H         1 <0>         0.0841
     50 H19         2.0204   -2.9290  -10.0353 H         1 <0>         0.0896
     51 H20         1.1112   -1.6033   -9.2326 H         1 <0>         0.0826
     52 H21         2.9839   -1.4384  -11.6626 H         1 <0>         0.0803
     53 H22         1.3813   -0.6611  -11.4345 H         1 <0>         0.0859
     54 H23         3.8064    0.6202  -10.9250 H         1 <0>         0.0714
     55 H24         2.2674    1.0544  -10.1325 H         1 <0>         0.0709
@<TRIPOS>BOND
     1    1    6 ar
     2    1    2 ar
     3    1   32 1
     4    2    3 ar
     5    2   33 1
     6    3    4 ar
     7    3   34 1
     8    4    5 ar
     9    5    6 ar
    10    5    7 1
    11    6   35 1
    12    7   11 2
    13    7    8 1
    14    8    9 2
    15    8   15 1
    16    9   14 1
    17    9   10 1
    18   10   11 1
    19   10   12 1
    20   12   13 1
    21   12   36 1
    22   12   37 1
    23   13   14 1
    24   13   38 1
    25   13   39 1
    26   14   40 1
    27   14   41 1
    28   15   20 ar
    29   15   16 ar
    30   16   17 ar
    31   16   42 1
    32   17   18 ar
    33   17   43 1
    34   18   19 ar
    35   19   24 ar
    36   19   20 ar
    37   20   21 ar
    38   21   22 ar
    39   21   44 1
    40   22   23 ar
    41   22   45 1
    42   23   24 ar
    43   23   25 1
    44   24   46 1
    45   25   26 1
    46   26   27 1
    47   26   47 1
    48   26   48 1
    49   27   31 1
    50   27   28 1
    51   27   49 1
    52   28   29 1
    53   28   50 1
    54   28   51 1
    55   29   30 1
    56   29   52 1
    57   29   53 1
    58   30   31 1
    59   30   54 1
    60   30   55 1
@<TRIPOS>MOLECULE
CHEMBL267228
   45    49     0     0     0
SMALL
USER_CHARGES

@<TRIPOS>ATOM
      1 C1         -0.0167    1.3782    0.0096 C.ar      1 <0>        -0.0669
      2 C2          1.1943    2.0586    0.0017 C.ar      1 <0>        -0.1693
      3 C3          2.3763    1.3419   -0.0134 C.ar      1 <0>         0.1113
      4 N1          2.3694    0.0245   -0.0209 N.ar      1 <0>        -0.4558
      5 C4          1.2329   -0.6658   -0.0137 C.ar      1 <0>         0.1949
      6 C5          0.0021   -0.0041    0.0020 C.ar      1 <0>        -0.1670
      7 C6          1.2716   -2.1397   -0.0225 C.2       1 <0>         0.0317
      8 C7          2.2961   -2.9406   -0.5008 C.2       1 <0>         0.1065
      9 N2          1.9326   -4.2196   -0.3211 N.2       1 <0>        -0.4586
     10 C8          0.7451   -4.2655    0.2395 C.2       1 <0>         0.2736
     11 N3          0.2991   -2.9937    0.4485 N.pl3     1 <0>        -0.5508
     12 H1         -0.5455   -2.7385    0.8516 H         1 <0>         0.4237
     13 C9          0.0119   -5.4996    0.5934 C.ar      1 <0>        -0.0140
     14 C10        -1.2512   -5.4201    1.1819 C.ar      1 <0>        -0.1109
     15 C11        -1.9303   -6.5755    1.5093 C.ar      1 <0>        -0.0949
     16 C12        -1.3618   -7.8111    1.2554 C.ar      1 <0>        -0.0810
     17 C13        -0.1101   -7.8969    0.6723 C.ar      1 <0>        -0.0955
     18 C14         0.5773   -6.7493    0.3352 C.ar      1 <0>        -0.0747
     19 C15        -2.1092   -9.0690    1.6162 C.3       1 <0>         0.1135
     20 O1         -2.9154   -9.4781    0.5094 O.3       1 <0>        -0.5672
     21 C16         3.5651   -2.4693   -1.1031 C.ar      1 <0>         0.0078
     22 C17         3.5822   -1.3108   -1.8793 C.ar      1 <0>        -0.0533
     23 C18         4.7644   -0.8732   -2.4399 C.ar      1 <0>        -0.1046
     24 C19         5.9386   -1.5820   -2.2339 C.ar      1 <0>         0.0384
     25 C20         5.9276   -2.7405   -1.4587 C.ar      1 <0>         0.0248
     26 C21         4.7458   -3.1800   -0.8902 C.ar      1 <0>        -0.0685
     27 O2          7.1954   -3.2450   -1.4106 O.3       1 <0>        -0.3088
     28 C22         7.9010   -2.6152   -2.4961 C.3       1 <0>         0.2133
     29 O3          7.2135   -1.3623   -2.6702 O.3       1 <0>        -0.3098
     30 H2         -0.9524    1.9173    0.0259 H         1 <0>         0.1391
     31 H3          1.2122    3.1385    0.0070 H         1 <0>         0.1397
     32 H4          3.3187    1.8694   -0.0196 H         1 <0>         0.1637
     33 H5         -0.9211   -0.5645    0.0082 H         1 <0>         0.1295
     34 H6         -1.6959   -4.4562    1.3809 H         1 <0>         0.1203
     35 H7         -2.9076   -6.5154    1.9650 H         1 <0>         0.1297
     36 H8          0.3282   -8.8645    0.4772 H         1 <0>         0.1321
     37 H9          1.5525   -6.8177   -0.1240 H         1 <0>         0.1421
     38 H10        -1.3971   -9.8580    1.8582 H         1 <0>         0.0585
     39 H11        -2.7470   -8.8779    2.4792 H         1 <0>         0.0571
     40 H12        -3.4258  -10.2834    0.6710 H         1 <0>         0.3833
     41 H13         2.6698   -0.7563   -2.0419 H         1 <0>         0.1297
     42 H14         4.7754    0.0238   -3.0413 H         1 <0>         0.1347
     43 H15         4.7366   -4.0751   -0.2860 H         1 <0>         0.1380
     44 H16         8.9438   -2.4458   -2.2279 H         1 <0>         0.1310
     45 H17         7.8305   -3.2196   -3.4005 H         1 <0>         0.0839
@<TRIPOS>BOND
     1    1    6 ar
     2    1    2 ar
     3    1   30 1
     4    2    3 ar
     5    2   31 1
     6    3    4 ar
     7    3   32 1
     8    4    5 ar
     9    5    6 ar
    10    5    7 1
    11    6   33 1
    12    7   11 1
    13    7    8 2
    14    8    9 1
    15    8   21 1
    16    9   10 2
    17   10   11 1
    18   10   13 1
    19   11   12 1
    20   13   18 ar
    21   13   14 ar
    22   14   15 ar
    23   14   34 1
    24   15   16 ar
    25   15   35 1
    26   16   17 ar
    27   16   19 1
    28   17   18 ar
    29   17   36 1
    30   18   37 1
    31   19   20 1
    32   19   38 1
    33   19   39 1
    34   20   40 1
    35   21   26 ar
    36   21   22 ar
    37   22   23 ar
    38   22   41 1
    39   23   24 ar
    40   23   42 1
    41   24   29 1
    42   24   25 ar
    43   25   26 ar
    44   25   27 1
    45   26   43 1
    46   27   28 1
    47   28   29 1
    48   28   44 1
    49   28   45 1
@<TRIPOS>MOLECULE
CHEMBL267228__1
   45    49     0     0     0
SMALL
USER_CHARGES

@<TRIPOS>ATOM
      1 C1         -0.0167    1.3788    0.0096 C.ar      1 <0>        -0.0758
      2 C2          1.1942    2.0586    0.0017 C.ar      1 <0>        -0.1719
      3 C3          2.3752    1.3409   -0.0134 C.ar      1 <0>         0.1030
      4 N1          2.3664    0.0231   -0.0204 N.ar      1 <0>        -0.4678
      5 C4          1.2308   -0.6651   -0.0133 C.ar      1 <0>         0.2035
      6 C5          0.0021   -0.0041    0.0020 C.ar      1 <0>        -0.1406
      7 C6          1.2686   -2.1447   -0.0221 C.2       1 <0>         0.0663
      8 C7          2.3012   -2.9330   -0.5046 C.2       1 <0>         0.0748
      9 N2          1.9148   -4.2379   -0.3143 N.pl3     1 <0>        -0.5541
     10 C8          0.6794   -4.2125    0.2686 C.2       1 <0>         0.2620
     11 N3          0.3106   -2.9645    0.4416 N.2       1 <0>        -0.4496
     12 H1          2.4238   -5.0292   -0.5502 H         1 <0>         0.4250
     13 C9         -0.1131   -5.4010    0.6494 C.ar      1 <0>        -0.0109
     14 C10         0.3927   -6.6823    0.4244 C.ar      1 <0>        -0.1118
     15 C11        -0.3517   -7.7871    0.7825 C.ar      1 <0>        -0.0941
     16 C12        -1.5974   -7.6272    1.3631 C.ar      1 <0>        -0.0826
     17 C13        -2.1046   -6.3599    1.5889 C.ar      1 <0>        -0.0954
     18 C14        -1.3680   -5.2466    1.2408 C.ar      1 <0>        -0.0771
     19 C15        -2.4055   -8.8387    1.7508 C.3       1 <0>         0.1138
     20 O1         -2.0906   -9.2114    3.0940 O.3       1 <0>        -0.5672
     21 C16         3.5653   -2.4639   -1.1046 C.ar      1 <0>        -0.0026
     22 C17         3.5532   -1.4320   -2.0462 C.ar      1 <0>        -0.0484
     23 C18         4.7356   -0.9954   -2.6053 C.ar      1 <0>        -0.0976
     24 C19         5.9397   -1.5778   -2.2366 C.ar      1 <0>         0.0432
     25 C20         5.9590   -2.6084   -1.2973 C.ar      1 <0>         0.0321
     26 C21         4.7778   -3.0466   -0.7282 C.ar      1 <0>        -0.0880
     27 O2          7.2523   -3.0042   -1.1111 O.3       1 <0>        -0.3081
     28 C22         7.9785   -2.4891   -2.2426 C.3       1 <0>         0.2131
     29 O3          7.2212   -1.3299   -2.6368 O.3       1 <0>        -0.3068
     30 H2         -0.9523    1.9180    0.0259 H         1 <0>         0.1365
     31 H3          1.2128    3.1385    0.0070 H         1 <0>         0.1354
     32 H4          3.3182    1.8673   -0.0200 H         1 <0>         0.1576
     33 H5         -0.9212   -0.5644    0.0082 H         1 <0>         0.1401
     34 H6          1.3646   -6.8084   -0.0294 H         1 <0>         0.1207
     35 H7          0.0385   -8.7791    0.6090 H         1 <0>         0.1294
     36 H8         -3.0778   -6.2419    2.0421 H         1 <0>         0.1314
     37 H9         -1.7633   -4.2579    1.4213 H         1 <0>         0.1409
     38 H10        -3.4677   -8.6055    1.6780 H         1 <0>         0.0581
     39 H11        -2.1678   -9.6640    1.0796 H         1 <0>         0.0569
     40 H12        -2.5752   -9.9857    3.4112 H         1 <0>         0.3831
     41 H13         2.6180   -0.9765   -2.3364 H         1 <0>         0.1339
     42 H14         4.7243   -0.1975   -3.3331 H         1 <0>         0.1392
     43 H15         4.7920   -3.8413    0.0029 H         1 <0>         0.1314
     44 H16         8.9898   -2.2051   -1.9515 H         1 <0>         0.1335
     45 H17         8.0028   -3.2228   -3.0483 H         1 <0>         0.0855
@<TRIPOS>BOND
     1    1    6 ar
     2    1    2 ar
     3    1   30 1
     4    2    3 ar
     5    2   31 1
     6    3    4 ar
     7    3   32 1
     8    4    5 ar
     9    5    6 ar
    10    5    7 1
    11    6   33 1
    12    7   11 1
    13    7    8 2
    14    8   21 1
    15    8    9 1
    16    9   10 1
    17    9   12 1
    18   10   13 1
    19   10   11 2
    20   13   18 ar
    21   13   14 ar
    22   14   15 ar
    23   14   34 1
    24   15   16 ar
    25   15   35 1
    26   16   17 ar
    27   16   19 1
    28   17   18 ar
    29   17   36 1
    30   18   37 1
    31   19   20 1
    32   19   38 1
    33   19   39 1
    34   20   40 1
    35   21   26 ar
    36   21   22 ar
    37   22   23 ar
    38   22   41 1
    39   23   24 ar
    40   23   42 1
    41   24   29 1
    42   24   25 ar
    43   25   26 ar
    44   25   27 1
    45   26   43 1
    46   27   28 1
    47   28   29 1
    48   28   44 1
    49   28   45 1
@<TRIPOS>MOLECULE
CHEMBL6252
   40    43     0     0     0
SMALL
USER_CHARGES

@<TRIPOS>ATOM
      1 C1         -0.0190    1.3849   -0.2207 C.ar      1 <0>        -0.0841
      2 C2          1.1526    2.0823   -0.3621 C.ar      1 <0>        -0.0873
      3 C3          2.3584    1.3952   -0.5382 C.ar      1 <0>        -0.1104
      4 C4          2.3676   -0.0034   -0.5699 C.ar      1 <0>        -0.0857
      5 C5          1.1951   -0.6995   -0.4284 C.ar      1 <0>        -0.1200
      6 C6         -0.0091   -0.0124   -0.2525 C.ar      1 <0>        -0.0502
      7 C7         -1.2720   -0.7633   -0.0997 C.2       1 <0>         0.2966
      8 N1         -1.3899   -2.1228   -0.1081 N.pl3     1 <0>        -0.5512
      9 H1         -0.6686   -2.7626   -0.2142 H         1 <0>         0.4242
     10 C8         -2.7221   -2.4156    0.0619 C.2       1 <0>         0.0077
     11 C9         -3.3795   -1.1989    0.1698 C.2       1 <0>         0.0766
     12 N2         -2.4604   -0.2284    0.0717 N.2       1 <0>        -0.4637
     13 C10        -4.8358   -1.0068    0.3646 C.ar      1 <0>        -0.0100
     14 C11        -5.5316   -1.8059    1.2713 C.ar      1 <0>        -0.0720
     15 C12        -6.8874   -1.6233    1.4492 C.ar      1 <0>        -0.1520
     16 C13        -7.5578   -0.6482    0.7284 C.ar      1 <0>         0.0984
     17 C14        -6.8708    0.1483   -0.1737 C.ar      1 <0>        -0.1523
     18 C15        -5.5138   -0.0226   -0.3539 C.ar      1 <0>        -0.0613
     19 F1         -8.8858   -0.4736    0.9053 F         1 <0>        -0.1409
     20 C16        -3.3318   -3.7576    0.1185 C.ar      1 <0>         0.0357
     21 C17        -4.4751   -4.0620   -0.6330 C.ar      1 <0>        -0.1459
     22 C18        -5.0113   -5.3292   -0.5495 C.ar      1 <0>         0.1047
     23 N3         -4.4634   -6.2478    0.2239 N.ar      1 <0>        -0.4848
     24 C19        -3.3872   -6.0039    0.9479 C.ar      1 <0>         0.1046
     25 C20        -2.7808   -4.7662    0.9209 C.ar      1 <0>        -0.1674
     26 C21         3.6184    2.1444   -0.6908 C.2       1 <0>         0.5167
     27 O1          3.6100    3.3673   -0.6634 O.co2     1 <0>        -0.6816
     28 O2          4.6726    1.5433   -0.8448 O.co2     1 <0>        -0.6840
     29 H2         -0.9494    1.9151   -0.0802 H         1 <0>         0.1310
     30 H3          1.1448    3.1620   -0.3379 H         1 <0>         0.1349
     31 H4          3.2980   -0.5344   -0.7062 H         1 <0>         0.1328
     32 H5          1.2021   -1.7792   -0.4529 H         1 <0>         0.1091
     33 H6         -5.0100   -2.5666    1.8330 H         1 <0>         0.1283
     34 H7         -7.4271   -2.2416    2.1511 H         1 <0>         0.1359
     35 H8         -7.3977    0.9070   -0.7332 H         1 <0>         0.1380
     36 H9         -4.9783    0.6018   -1.0537 H         1 <0>         0.1389
     37 H10        -4.9291   -3.3152   -1.2674 H         1 <0>         0.1385
     38 H11        -5.8921   -5.5737   -1.1246 H         1 <0>         0.1594
     39 H12        -2.9733   -6.7862    1.5669 H         1 <0>         0.1585
     40 H13        -1.8974   -4.5753    1.5121 H         1 <0>         0.1344
@<TRIPOS>BOND
     1    1    6 ar
     2    1    2 ar
     3    1   29 1
     4    2    3 ar
     5    2   30 1
     6    3    4 ar
     7    3   26 1
     8    4    5 ar
     9    4   31 1
    10    5    6 ar
    11    5   32 1
    12    6    7 1
    13    7   12 2
    14    7    8 1
    15    8    9 1
    16    8   10 1
    17   10   11 2
    18   10   20 1
    19   11   12 1
    20   11   13 1
    21   13   18 ar
    22   13   14 ar
    23   14   15 ar
    24   14   33 1
    25   15   16 ar
    26   15   34 1
    27   16   17 ar
    28   16   19 1
    29   17   18 ar
    30   17   35 1
    31   18   36 1
    32   20   25 ar
    33   20   21 ar
    34   21   22 ar
    35   21   37 1
    36   22   23 ar
    37   22   38 1
    38   23   24 ar
    39   24   25 ar
    40   24   39 1
    41   25   40 1
    42   26   27 2
    43   26   28 1
@<TRIPOS>MOLECULE
CHEMBL6252__1
   40    43     0     0     0
SMALL
USER_CHARGES

@<TRIPOS>ATOM
      1 C1         -0.0169    1.3936    0.0097 C.ar      1 <0>        -0.0839
      2 C2          1.1564    2.0929    0.0023 C.ar      1 <0>        -0.0876
      3 C3          2.3774    1.4099   -0.0131 C.ar      1 <0>        -0.1101
      4 C4          2.3957    0.0109   -0.0208 C.ar      1 <0>        -0.0862
      5 C5          1.2216   -0.6871   -0.0133 C.ar      1 <0>        -0.1192
      6 C6          0.0021   -0.0041    0.0020 C.ar      1 <0>        -0.0501
      7 C7         -1.2669   -0.7595    0.0101 C.2       1 <0>         0.2932
      8 N1         -2.4687   -0.2293    0.0240 N.2       1 <0>        -0.4598
      9 H1         -0.6471   -2.7588   -0.0162 H         1 <0>         0.4245
     10 C8         -3.3892   -1.2048    0.0272 C.2       1 <0>         0.0572
     11 C9         -2.7179   -2.4192    0.0146 C.2       1 <0>         0.0294
     12 N2         -1.3782   -2.1215   -0.0016 N.pl3     1 <0>        -0.5527
     13 C10        -3.3246   -3.7646    0.0133 C.ar      1 <0>        -0.0260
     14 C11        -4.3873   -4.0553    0.8722 C.ar      1 <0>        -0.0609
     15 C12        -4.9504   -5.3139    0.8663 C.ar      1 <0>        -0.1474
     16 C13        -4.4640   -6.2897    0.0104 C.ar      1 <0>         0.1036
     17 C14        -3.4094   -6.0072   -0.8437 C.ar      1 <0>        -0.1484
     18 C15        -2.8421   -4.7506   -0.8508 C.ar      1 <0>        -0.0809
     19 F1         -5.0196   -7.5211    0.0089 F         1 <0>        -0.1375
     20 C16        -4.8581   -1.0192    0.0422 C.ar      1 <0>         0.0477
     21 C17        -5.7016   -1.9045   -0.6382 C.ar      1 <0>        -0.1599
     22 C18        -7.0638   -1.6943   -0.5980 C.ar      1 <0>         0.0981
     23 N3         -7.5730   -0.6762    0.0697 N.ar      1 <0>        -0.4885
     24 C19        -6.8134    0.1817    0.7245 C.ar      1 <0>         0.0985
     25 C20        -5.4415    0.0430    0.7418 C.ar      1 <0>        -0.1464
     26 C21         3.6436    2.1637   -0.0216 C.2       1 <0>         0.5166
     27 O1          3.6273    3.3868   -0.0153 O.co2     1 <0>        -0.6817
     28 O2          4.7109    1.5662   -0.0350 O.co2     1 <0>        -0.6841
     29 H2         -0.9594    1.9207    0.0260 H         1 <0>         0.1304
     30 H3          1.1416    3.1728    0.0079 H         1 <0>         0.1347
     31 H4          3.3378   -0.5169   -0.0330 H         1 <0>         0.1327
     32 H5          1.2355   -1.7670   -0.0193 H         1 <0>         0.1091
     33 H6         -4.7669   -3.2959    1.5398 H         1 <0>         0.1358
     34 H7         -5.7718   -5.5400    1.5300 H         1 <0>         0.1408
     35 H8         -3.0342   -6.7717   -1.5079 H         1 <0>         0.1399
     36 H9         -2.0234   -4.5303   -1.5199 H         1 <0>         0.1333
     37 H10        -5.2918   -2.7396   -1.1869 H         1 <0>         0.1331
     38 H11        -7.7230   -2.3719   -1.1203 H         1 <0>         0.1549
     39 H12        -7.2727    1.0008    1.2578 H         1 <0>         0.1572
     40 H13        -4.8263    0.7459    1.2839 H         1 <0>         0.1406
@<TRIPOS>BOND
     1    1    6 ar
     2    1    2 ar
     3    1   29 1
     4    2    3 ar
     5    2   30 1
     6    3    4 ar
     7    3   26 1
     8    4    5 ar
     9    4   31 1
    10    5    6 ar
    11    5   32 1
    12    6    7 1
    13    7    8 2
    14    7   12 1
    15    8   10 1
    16    9   12 1
    17   10   20 1
    18   10   11 2
    19   11   13 1
    20   11   12 1
    21   13   18 ar
    22   13   14 ar
    23   14   15 ar
    24   14   33 1
    25   15   16 ar
    26   15   34 1
    27   16   17 ar
    28   16   19 1
    29   17   18 ar
    30   17   35 1
    31   18   36 1
    32   20   25 ar
    33   20   21 ar
    34   21   22 ar
    35   21   37 1
    36   22   23 ar
    37   22   38 1
    38   23   24 ar
    39   24   25 ar
    40   24   39 1
    41   25   40 1
    42   26   27 2
    43   26   28 1
@<TRIPOS>MOLECULE
CHEMBL268889
   38    42     0     0     0
SMALL
USER_CHARGES

@<TRIPOS>ATOM
      1 C1         -0.0167    1.3787    0.0096 C.ar      1 <0>        -0.0755
      2 C2          1.1942    2.0586    0.0017 C.ar      1 <0>        -0.1735
      3 C3          2.3752    1.3410   -0.0134 C.ar      1 <0>         0.1028
      4 N1          2.3666    0.0231   -0.0204 N.ar      1 <0>        -0.4699
      5 C4          1.2309   -0.6651   -0.0133 C.ar      1 <0>         0.2080
      6 C5          0.0021   -0.0041    0.0020 C.ar      1 <0>        -0.1416
      7 C6          1.2688   -2.1444   -0.0221 C.2       1 <0>         0.0631
      8 C7          2.2974   -2.9331   -0.5027 C.2       1 <0>         0.0814
      9 N2          1.9050   -4.2388   -0.3080 N.pl3     1 <0>        -0.4725
     10 C8          0.6780   -4.2115    0.2684 C.2       1 <0>         0.2003
     11 N3          0.3108   -2.9679    0.4416 N.2       1 <0>        -0.4583
     12 C9          0.1901   -5.6284    0.5021 C.3       1 <0>        -0.0408
     13 C10         1.0989   -6.4978   -0.3951 C.3       1 <0>        -0.1292
     14 C11         2.3637   -5.6206   -0.5112 C.3       1 <0>         0.0992
     15 C12         3.5634   -2.4687   -1.1044 C.ar      1 <0>         0.0044
     16 C13         4.7734   -3.0584   -0.7320 C.ar      1 <0>        -0.0956
     17 C14         5.9544   -2.6234   -1.2955 C.ar      1 <0>        -0.0990
     18 C15         5.9460   -1.6005   -2.2327 C.ar      1 <0>         0.0388
     19 C16         4.7414   -1.0074   -2.6089 C.ar      1 <0>         0.0351
     20 C17         3.5534   -1.4426   -2.0515 C.ar      1 <0>        -0.0463
     21 O1          5.0031   -0.0381   -3.5341 O.3       1 <0>        -0.3077
     22 C18         6.4120    0.2345   -3.4172 C.3       1 <0>         0.2137
     23 O2          6.9601   -1.0018   -2.9233 O.3       1 <0>        -0.3083
     24 H1         -0.9523    1.9179    0.0259 H         1 <0>         0.1367
     25 H2          1.2128    3.1384    0.0070 H         1 <0>         0.1351
     26 H3          3.3182    1.8675   -0.0200 H         1 <0>         0.1552
     27 H4         -0.9212   -0.5644    0.0082 H         1 <0>         0.1402
     28 H5          0.3111   -5.9053    1.5494 H         1 <0>         0.1002
     29 H6         -0.8522   -5.7275    0.1987 H         1 <0>         0.1019
     30 H7          1.3270   -7.4488    0.0864 H         1 <0>         0.1058
     31 H8          0.6440   -6.6570   -1.3728 H         1 <0>         0.0902
     32 H9          2.8079   -5.7287   -1.5007 H         1 <0>         0.0945
     33 H10         3.0850   -5.8954    0.2585 H         1 <0>         0.0942
     34 H11         4.7841   -3.8547   -0.0024 H         1 <0>         0.1318
     35 H12         6.8892   -3.0804   -1.0061 H         1 <0>         0.1382
     36 H13         2.6193   -0.9871   -2.3454 H         1 <0>         0.1291
     37 H14         6.8366    0.4799   -4.3906 H         1 <0>         0.1325
     38 H15         6.5880    1.0423   -2.7068 H         1 <0>         0.0858
@<TRIPOS>BOND
     1    1    6 ar
     2    1    2 ar
     3    1   24 1
     4    2    3 ar
     5    2   25 1
     6    3    4 ar
     7    3   26 1
     8    4    5 ar
     9    5    6 ar
    10    5    7 1
    11    6   27 1
    12    7   11 1
    13    7    8 2
    14    8    9 1
    15    8   15 1
    16    9   14 1
    17    9   10 1
    18   10   11 2
    19   10   12 1
    20   12   13 1
    21   12   28 1
    22   12   29 1
    23   13   14 1
    24   13   30 1
    25   13   31 1
    26   14   32 1
    27   14   33 1
    28   15   20 ar
    29   15   16 ar
    30   16   17 ar
    31   16   34 1
    32   17   18 ar
    33   17   35 1
    34   18   23 1
    35   18   19 ar
    36   19   20 ar
    37   19   21 1
    38   20   36 1
    39   21   22 1
    40   22   23 1
    41   22   37 1
    42   22   38 1
@<TRIPOS>MOLECULE
CHEMBL268889__1
   39    43     0     0     0
SMALL
USER_CHARGES

@<TRIPOS>ATOM
      1 C1         -0.0167    1.3787    0.0096 C.ar      1 <0>        -0.0616
      2 C2          1.1942    2.0586    0.0017 C.ar      1 <0>        -0.1401
      3 C3          2.3752    1.3410   -0.0134 C.ar      1 <0>         0.1177
      4 N1          2.3666    0.0231   -0.0204 N.ar      1 <0>        -0.4504
      5 C4          1.2309   -0.6651   -0.0133 C.ar      1 <0>         0.1567
      6 C5          0.0021   -0.0041    0.0020 C.ar      1 <0>        -0.1501
      7 C6          1.2688   -2.1444   -0.0221 C.2       1 <0>         0.0880
      8 C7          2.2974   -2.9331   -0.5027 C.2       1 <0>         0.1769
      9 N2          1.9050   -4.2388   -0.3080 N.pl3     1 <0>        -0.4207
     10 C8          0.6780   -4.2115    0.2684 C.cat     1 <0>         0.2892
     11 N3          0.3108   -2.9679    0.4416 N.pl3     1 <0>        -0.4520
     12 C9          0.1901   -5.6284    0.5021 C.3       1 <0>        -0.0618
     13 C10         1.0989   -6.4978   -0.3951 C.3       1 <0>        -0.1282
     14 C11         2.3637   -5.6206   -0.5112 C.3       1 <0>         0.0841
     15 C12         3.5634   -2.4687   -1.1044 C.ar      1 <0>        -0.0507
     16 C13         4.7734   -3.0584   -0.7320 C.ar      1 <0>        -0.0715
     17 C14         5.9544   -2.6234   -1.2955 C.ar      1 <0>        -0.1012
     18 C15         5.9460   -1.6005   -2.2327 C.ar      1 <0>         0.0736
     19 C16         4.7414   -1.0074   -2.6089 C.ar      1 <0>         0.0373
     20 C17         3.5534   -1.4426   -2.0515 C.ar      1 <0>        -0.0349
     21 O1          5.0031   -0.0381   -3.5341 O.3       1 <0>        -0.3023
     22 C18         6.4120    0.2345   -3.4172 C.3       1 <0>         0.2122
     23 O2          6.9601   -1.0018   -2.9233 O.3       1 <0>        -0.2991
     24 H1         -0.9523    1.9179    0.0259 H         1 <0>         0.1509
     25 H2          1.2128    3.1384    0.0070 H         1 <0>         0.1514
     26 H3          3.3182    1.8675   -0.0200 H         1 <0>         0.1713
     27 H4         -0.9212   -0.5644    0.0082 H         1 <0>         0.1358
     28 H5          0.3111   -5.9053    1.5494 H         1 <0>         0.1359
     29 H6         -0.8522   -5.7275    0.1987 H         1 <0>         0.1319
     30 H7          1.3270   -7.4488    0.0864 H         1 <0>         0.1317
     31 H8          0.6440   -6.6570   -1.3728 H         1 <0>         0.1088
     32 H9          2.8079   -5.7287   -1.5007 H         1 <0>         0.1270
     33 H10         3.0850   -5.8954    0.2585 H         1 <0>         0.1261
     34 H11         4.7841   -3.8547   -0.0024 H         1 <0>         0.1385
     35 H12         6.8892   -3.0804   -1.0061 H         1 <0>         0.1497
     36 H13         2.6193   -0.9871   -2.3454 H         1 <0>         0.1337
     37 H14         6.8366    0.4799   -4.3906 H         1 <0>         0.1417
     38 H15         6.5880    1.0423   -2.7068 H         1 <0>         0.0945
     39 H16        -0.5259   -2.6827    0.8409 H         1 <0>         0.4601
@<TRIPOS>BOND
     1    1    6 ar
     2    1    2 ar
     3    1   24 1
     4    2    3 ar
     5    2   25 1
     6    3    4 ar
     7    3   26 1
     8    4    5 ar
     9    5    6 ar
    10    5    7 1
    11    6   27 1
    12    7   11 1
    13    7    8 2
    14    8    9 1
    15    8   15 1
    16    9   14 1
    17    9   10 1
    18   10   11 2
    19   10   12 1
    20   11   39 1
    21   12   13 1
    22   12   28 1
    23   12   29 1
    24   13   14 1
    25   13   30 1
    26   13   31 1
    27   14   32 1
    28   14   33 1
    29   15   20 ar
    30   15   16 ar
    31   16   17 ar
    32   16   34 1
    33   17   18 ar
    34   17   35 1
    35   18   23 1
    36   18   19 ar
    37   19   20 ar
    38   19   21 1
    39   20   36 1
    40   21   22 1
    41   22   23 1
    42   22   37 1
    43   22   38 1
@<TRIPOS>MOLECULE
CHEMBL593725
   39    42     0     0     0
SMALL
USER_CHARGES

@<TRIPOS>ATOM
      1 C1          0.0999    1.3415    0.7728 C.3       1 <0>         0.0904
      2 N1          0.0542   -0.0575    0.3405 N.pl3     1 <0>        -0.3822
      3 C2         -1.0870   -0.7607    0.0529 C.2       1 <0>         0.2589
      4 C3         -0.7165   -2.0456   -0.3183 C.2       1 <0>        -0.2581
      5 C4          0.7464   -2.0995   -0.2429 C.2       1 <0>         0.5489
      6 O1          1.4488   -3.0617   -0.4942 O.2       1 <0>        -0.5308
      7 N2          1.1680   -0.8812    0.1512 N.am      1 <0>        -0.4148
      8 C5          2.5644   -0.4863    0.3524 C.3       1 <0>         0.0981
      9 C6         -1.6211   -3.1459   -0.7125 C.ar      1 <0>         0.2220
     10 C7         -1.1036   -4.4247   -0.9290 C.ar      1 <0>        -0.1610
     11 C8         -1.9629   -5.4431   -1.2972 C.ar      1 <0>        -0.0709
     12 C9         -3.3141   -5.1531   -1.4381 C.ar      1 <0>        -0.1859
     13 C10        -3.7595   -3.8656   -1.2085 C.ar      1 <0>         0.1040
     14 N3         -2.9213   -2.9123   -0.8530 N.ar      1 <0>        -0.4890
     15 C11        -2.4660   -0.2428    0.1257 C.ar      1 <0>        -0.0080
     16 C12        -3.4461   -0.9618    0.8360 C.ar      1 <0>        -0.0200
     17 C13        -4.7211   -0.5054    0.9163 C.ar      1 <0>        -0.0876
     18 C14        -5.0802    0.7010    0.2861 C.ar      1 <0>         0.0958
     19 C15        -4.1025    1.4357   -0.4325 C.ar      1 <0>         0.0735
     20 C16        -2.7867    0.9512   -0.5010 C.ar      1 <0>        -0.0580
     21 N4         -4.4449    2.5828   -1.0305 N.ar      1 <0>        -0.4224
     22 C17        -5.6814    3.0171   -0.9466 C.ar      1 <0>         0.0742
     23 C18        -6.6443    2.2937   -0.2391 C.ar      1 <0>         0.0828
     24 N5         -6.3325    1.1648    0.3561 N.ar      1 <0>        -0.4268
     25 H1          1.1369    1.6412    0.9247 H         1 <0>         0.0953
     26 H2         -0.3525    1.9731    0.0083 H         1 <0>         0.0861
     27 H3         -0.4506    1.4512    1.7072 H         1 <0>         0.0873
     28 H4          2.8545   -0.6897    1.3832 H         1 <0>         0.0729
     29 H5          3.2036   -1.0541   -0.3237 H         1 <0>         0.1022
     30 H6          2.6739    0.5786    0.1475 H         1 <0>         0.0814
     31 H7         -0.0472   -4.6154   -0.8107 H         1 <0>         0.1481
     32 H8         -1.5918   -6.4422   -1.4718 H         1 <0>         0.1331
     33 H9         -4.0103   -5.9273   -1.7250 H         1 <0>         0.1315
     34 H10        -4.8096   -3.6380   -1.3176 H         1 <0>         0.1532
     35 H11        -3.1797   -1.8884    1.3227 H         1 <0>         0.1374
     36 H12        -5.4619   -1.0687    1.4644 H         1 <0>         0.1446
     37 H13        -2.0313    1.5024   -1.0413 H         1 <0>         0.1401
     38 H14        -5.9566    3.9432   -1.4293 H         1 <0>         0.1769
     39 H15        -7.6562    2.6667   -0.1806 H         1 <0>         0.1769
@<TRIPOS>BOND
     1    1    2 1
     2    1   25 1
     3    1   26 1
     4    1   27 1
     5    2    7 1
     6    2    3 1
     7    3    4 2
     8    3   15 1
     9    4    5 1
    10    4    9 1
    11    5    6 2
    12    5    7 am
    13    7    8 1
    14    8   28 1
    15    8   29 1
    16    8   30 1
    17    9   14 ar
    18    9   10 ar
    19   10   11 ar
    20   10   31 1
    21   11   12 ar
    22   11   32 1
    23   12   13 ar
    24   12   33 1
    25   13   14 ar
    26   13   34 1
    27   15   20 ar
    28   15   16 ar
    29   16   17 ar
    30   16   35 1
    31   17   18 ar
    32   17   36 1
    33   18   24 ar
    34   18   19 ar
    35   19   20 ar
    36   19   21 ar
    37   20   37 1
    38   21   22 ar
    39   22   23 ar
    40   22   38 1
    41   23   24 ar
    42   23   39 1
@<TRIPOS>MOLECULE
CHEMBL425177
   36    39     0     0     0
SMALL
USER_CHARGES

@<TRIPOS>ATOM
      1 C1         -2.9194    0.1661    0.3148 C.3       1 <0>        -0.1067
      2 C2         -1.9527   -0.9875    0.2391 C.ar      1 <0>         0.1567
      3 C3         -1.7986   -1.6676   -0.9663 C.ar      1 <0>        -0.1587
      4 C4         -0.9272   -2.7159   -1.0531 C.ar      1 <0>        -0.0404
      5 C5         -0.2029   -3.0770    0.0998 C.ar      1 <0>         0.0781
      6 C6         -0.4117   -2.3393    1.2891 C.ar      1 <0>         0.0980
      7 N1         -1.2715   -1.3244    1.3096 N.ar      1 <0>        -0.4607
      8 C7          0.3469   -2.7230    2.4838 C.ar      1 <0>         0.1020
      9 C8          1.2290   -3.7980    2.3622 C.ar      1 <0>        -0.1236
     10 C9          1.3512   -4.4474    1.1436 C.ar      1 <0>         0.1421
     11 N2          0.6654   -4.0917    0.0835 N.ar      1 <0>        -0.4700
     12 C10         0.1858   -2.0053    3.7560 C.2       1 <0>        -0.1464
     13 C11        -0.0263   -2.5059    5.0410 C.2       1 <0>         0.1639
     14 N3         -0.1408   -1.6524    6.0419 N.2       1 <0>        -0.5669
     15 C12        -0.0591   -0.3469    5.8513 C.2       1 <0>         0.3714
     16 S1          0.2149   -0.2485    4.0880 S.3       1 <0>         0.0625
     17 N4         -0.1559    0.6755    6.7756 N.pl3     1 <0>        -0.7914
     18 C13        -0.1215   -3.9635    5.2772 C.ar      1 <0>         0.1841
     19 C14         0.2147   -4.4858    6.5267 C.ar      1 <0>        -0.1320
     20 C15         0.1204   -5.8505    6.7318 C.ar      1 <0>        -0.0788
     21 C16        -0.3071   -6.6511    5.6810 C.ar      1 <0>        -0.1658
     22 C17        -0.6243   -6.0674    4.4686 C.ar      1 <0>         0.1014
     23 N5         -0.5314   -4.7640    4.3000 N.ar      1 <0>        -0.4647
     24 H1         -2.4023    1.0909    0.0593 H         1 <0>         0.0825
     25 H2         -3.7373    0.0014   -0.3866 H         1 <0>         0.0789
     26 H3         -3.3179    0.2403    1.3267 H         1 <0>         0.0790
     27 H4         -2.3686   -1.3663   -1.8328 H         1 <0>         0.1440
     28 H5         -0.7972   -3.2536   -1.9807 H         1 <0>         0.1484
     29 H6          1.8124   -4.1213    3.2116 H         1 <0>         0.1363
     30 H7          2.0375   -5.2775    1.0639 H         1 <0>         0.1633
     31 H8         -0.3041    0.4703    7.7119 H         1 <0>         0.4182
     32 H9         -0.0756    1.5984    6.4881 H         1 <0>         0.4229
     33 H10         0.5441   -3.8339    7.3223 H         1 <0>         0.1404
     34 H11         0.3741   -6.2838    7.6880 H         1 <0>         0.1373
     35 H12        -0.3907   -7.7201    5.8095 H         1 <0>         0.1368
     36 H13        -0.9567   -6.6880    3.6496 H         1 <0>         0.1577
@<TRIPOS>BOND
     1    1    2 1
     2    1   24 1
     3    1   25 1
     4    1   26 1
     5    2    7 ar
     6    2    3 ar
     7    3    4 ar
     8    3   27 1
     9    4    5 ar
    10    4   28 1
    11    5   11 ar
    12    5    6 ar
    13    6    7 ar
    14    6    8 ar
    15    8    9 ar
    16    8   12 1
    17    9   10 ar
    18    9   29 1
    19   10   11 ar
    20   10   30 1
    21   12   16 1
    22   12   13 2
    23   13   14 1
    24   13   18 1
    25   14   15 2
    26   15   16 1
    27   15   17 1
    28   17   31 1
    29   17   32 1
    30   18   23 ar
    31   18   19 ar
    32   19   20 ar
    33   19   33 1
    34   20   21 ar
    35   20   34 1
    36   21   22 ar
    37   21   35 1
    38   22   23 ar
    39   22   36 1
@<TRIPOS>MOLECULE
CHEMBL260015
   60    65     0     0     0
SMALL
USER_CHARGES

@<TRIPOS>ATOM
      1 C1         -0.3537    1.3174   -0.1020 C.ar      1 <0>        -0.0752
      2 C2          0.7917    2.1013   -0.1201 C.ar      1 <0>        -0.1638
      3 C3          2.0317    1.4905   -0.1062 C.ar      1 <0>         0.1057
      4 N1          2.1390    0.1775   -0.0760 N.ar      1 <0>        -0.4547
      5 C4          1.0693   -0.6074   -0.0579 C.ar      1 <0>         0.1979
      6 C5         -0.2121   -0.0586   -0.0704 C.ar      1 <0>        -0.1414
      7 C6          1.2382   -2.0796   -0.0241 C.2       1 <0>         0.1407
      8 C7          2.3986   -2.8331   -0.4986 C.2       1 <0>        -0.1722
      9 C8          2.1251   -4.1553   -0.2755 C.2       1 <0>         0.0858
     10 N2          0.9098   -4.2458    0.2918 N.pl3     1 <0>        -0.3851
     11 N3          0.3768   -2.9540    0.4428 N.2       1 <0>        -0.2461
     12 C9          0.5610   -5.6518    0.5650 C.3       1 <0>         0.1289
     13 C10         1.5244   -6.4934   -0.2983 C.3       1 <0>        -0.1315
     14 C11         2.7264   -5.5345   -0.4522 C.3       1 <0>        -0.0688
     15 C12         3.6285   -2.2746   -1.1022 C.ar      1 <0>         0.0918
     16 C13         4.7214   -1.9293   -0.3152 C.ar      1 <0>        -0.1642
     17 C14         5.8603   -1.4077   -0.9127 C.ar      1 <0>         0.1476
     18 N4          5.9414   -1.2268   -2.2103 N.ar      1 <0>        -0.4863
     19 C15         4.9299   -1.5360   -3.0293 C.ar      1 <0>         0.1710
     20 C16         3.7330   -2.0796   -2.5026 C.ar      1 <0>        -0.1185
     21 C17         2.6769   -2.4083   -3.3633 C.ar      1 <0>        -0.0460
     22 C18         2.8079   -2.2093   -4.7033 C.ar      1 <0>        -0.1967
     23 C19         3.9872   -1.6793   -5.2357 C.ar      1 <0>         0.1474
     24 C20         5.0371   -1.3346   -4.4153 C.ar      1 <0>        -0.1448
     25 O1          4.0933   -1.4911   -6.5768 O.3       1 <0>        -0.2940
     26 C21         2.9651   -1.8561   -7.3743 C.3       1 <0>         0.0654
     27 C22         3.2691   -1.5743   -8.8471 C.3       1 <0>         0.0547
     28 N5          4.3608   -2.4480   -9.2976 N.3       1 <0>        -0.5304
     29 C23         4.9892   -1.9198  -10.5172 C.3       1 <0>         0.0187
     30 C24         6.1566   -2.8261  -10.9169 C.3       1 <0>         0.0627
     31 O2          5.6783   -4.1628  -11.0896 O.3       1 <0>        -0.3854
     32 C25         5.0608   -4.7089   -9.9209 C.3       1 <0>         0.0636
     33 C26         3.8823   -3.8216   -9.5111 C.3       1 <0>         0.0143
     34 H1         -1.3336    1.7716   -0.1080 H         1 <0>         0.1394
     35 H2          0.7148    3.1783   -0.1453 H         1 <0>         0.1389
     36 H3          2.9248    2.0977   -0.1206 H         1 <0>         0.1606
     37 H4         -1.0820   -0.6985   -0.0553 H         1 <0>         0.1387
     38 H5          0.7067   -5.8777    1.6214 H         1 <0>         0.0934
     39 H6         -0.4718   -5.8468    0.2762 H         1 <0>         0.0961
     40 H7          1.8172   -7.4061    0.2206 H         1 <0>         0.1066
     41 H8          1.0811   -6.7222   -1.2674 H         1 <0>         0.0899
     42 H9          3.1692   -5.6337   -1.4433 H         1 <0>         0.0981
     43 H10         3.4705   -5.7283    0.3204 H         1 <0>         0.1008
     44 H11         4.6841   -2.0660    0.7555 H         1 <0>         0.1319
     45 H12         6.7037   -1.1428   -0.2923 H         1 <0>         0.1579
     46 H13         1.7613   -2.8190   -2.9641 H         1 <0>         0.1242
     47 H14         1.9917   -2.4639   -5.3631 H         1 <0>         0.1283
     48 H15         5.9436   -0.9254   -4.8362 H         1 <0>         0.1414
     49 H16         2.7556   -2.9177   -7.2432 H         1 <0>         0.0626
     50 H17         2.0975   -1.2736   -7.0646 H         1 <0>         0.0671
     51 H18         2.3787   -1.7676   -9.4454 H         1 <0>         0.0614
     52 H19         3.5662   -0.5321   -8.9639 H         1 <0>         0.0893
     53 H20         4.2557   -1.8945  -11.3230 H         1 <0>         0.0433
     54 H21         5.3589   -0.9119  -10.3289 H         1 <0>         0.0891
     55 H22         6.5896   -2.4708  -11.8519 H         1 <0>         0.0994
     56 H23         6.9150   -2.8092  -10.1342 H         1 <0>         0.0622
     57 H24         4.7013   -5.7152  -10.1357 H         1 <0>         0.0983
     58 H25         5.7874   -4.7467   -9.1093 H         1 <0>         0.0615
     59 H26         3.4440   -4.2019   -8.5884 H         1 <0>         0.0845
     60 H27         3.1310   -3.8267  -10.3008 H         1 <0>         0.0441
@<TRIPOS>BOND
     1    1    6 ar
     2    1    2 ar
     3    1   34 1
     4    2    3 ar
     5    2   35 1
     6    3    4 ar
     7    3   36 1
     8    4    5 ar
     9    5    6 ar
    10    5    7 1
    11    6   37 1
    12    7   11 2
    13    7    8 1
    14    8    9 2
    15    8   15 1
    16    9   14 1
    17    9   10 1
    18   10   11 1
    19   10   12 1
    20   12   13 1
    21   12   38 1
    22   12   39 1
    23   13   14 1
    24   13   40 1
    25   13   41 1
    26   14   42 1
    27   14   43 1
    28   15   20 ar
    29   15   16 ar
    30   16   17 ar
    31   16   44 1
    32   17   18 ar
    33   17   45 1
    34   18   19 ar
    35   19   24 ar
    36   19   20 ar
    37   20   21 ar
    38   21   22 ar
    39   21   46 1
    40   22   23 ar
    41   22   47 1
    42   23   24 ar
    43   23   25 1
    44   24   48 1
    45   25   26 1
    46   26   27 1
    47   26   49 1
    48   26   50 1
    49   27   28 1
    50   27   51 1
    51   27   52 1
    52   28   33 1
    53   28   29 1
    54   29   30 1
    55   29   53 1
    56   29   54 1
    57   30   31 1
    58   30   55 1
    59   30   56 1
    60   31   32 1
    61   32   33 1
    62   32   57 1
    63   32   58 1
    64   33   59 1
    65   33   60 1
@<TRIPOS>MOLECULE
CHEMBL260015__1
   61    66     0     0     0
SMALL
USER_CHARGES

@<TRIPOS>ATOM
      1 C1         -0.6198    0.9114   -0.0915 C.ar      1 <0>        -0.0737
      2 C2          0.5586    1.6401   -0.0081 C.ar      1 <0>        -0.1612
      3 C3          1.7686    0.9721    0.0181 C.ar      1 <0>         0.1046
      4 N1          1.8164   -0.3437   -0.0350 N.ar      1 <0>        -0.4585
      5 C4          0.7134   -1.0770   -0.1152 C.ar      1 <0>         0.1938
      6 C5         -0.5406   -0.4689   -0.1459 C.ar      1 <0>        -0.1398
      7 C6          0.8155   -2.5546   -0.1727 C.2       1 <0>         0.1432
      8 C7          1.9621   -3.3295   -0.6464 C.2       1 <0>        -0.1847
      9 C8          1.6206   -4.6490   -0.5242 C.2       1 <0>         0.0887
     10 N2          0.3777   -4.7189   -0.0168 N.pl3     1 <0>        -0.3818
     11 N3         -0.1041   -3.4160    0.1973 N.2       1 <0>        -0.2420
     12 C9         -0.0448   -6.1217    0.1466 C.3       1 <0>         0.1262
     13 C10         0.9191   -6.9499   -0.7290 C.3       1 <0>        -0.1311
     14 C11         2.1680   -6.0406   -0.7668 C.3       1 <0>        -0.0687
     15 C12         3.2418   -2.7914   -1.1581 C.ar      1 <0>         0.0973
     16 C13         4.3116   -2.5497   -0.3036 C.ar      1 <0>        -0.1533
     17 C14         5.4986   -2.0445   -0.8156 C.ar      1 <0>         0.1580
     18 N4          5.6470   -1.7839   -2.0935 N.ar      1 <0>        -0.4872
     19 C15         4.6615   -1.9914   -2.9740 C.ar      1 <0>         0.1666
     20 C16         3.4189   -2.5111   -2.5365 C.ar      1 <0>        -0.1123
     21 C17         2.3899   -2.7334   -3.4617 C.ar      1 <0>        -0.0328
     22 C18         2.5909   -2.4542   -4.7786 C.ar      1 <0>        -0.2043
     23 C19         3.8156   -1.9469   -5.2234 C.ar      1 <0>         0.1246
     24 C20         4.8409   -1.7059   -4.3375 C.ar      1 <0>        -0.1243
     25 O1          3.9912   -1.6773   -6.5431 O.3       1 <0>        -0.3271
     26 C21         2.8858   -1.9364   -7.4109 C.3       1 <0>         0.0255
     27 C22         3.2691   -1.5743   -8.8471 C.3       1 <0>         0.0001
     28 N5          4.3608   -2.4480   -9.2976 N.4       1 <0>        -0.3871
     29 C23         4.8261   -2.0085  -10.6202 C.3       1 <0>        -0.0436
     30 C24         5.9636   -2.9201  -11.0872 C.3       1 <0>         0.0353
     31 O2          5.5017   -4.2735  -11.1159 O.3       1 <0>        -0.3561
     32 C25         5.0153   -4.7407   -9.8546 C.3       1 <0>         0.0371
     33 C26         3.8760   -3.8324   -9.3853 C.3       1 <0>        -0.0499
     34 H1         -1.5774    1.4106   -0.1090 H         1 <0>         0.1413
     35 H2          0.5305    2.7189    0.0356 H         1 <0>         0.1405
     36 H3          2.6872    1.5362    0.0826 H         1 <0>         0.1610
     37 H4         -1.4377   -1.0668   -0.2109 H         1 <0>         0.1397
     38 H5          0.0422   -6.4222    1.1908 H         1 <0>         0.0965
     39 H6         -1.0709   -6.2488   -0.1985 H         1 <0>         0.0985
     40 H7          1.1473   -7.9071   -0.2602 H         1 <0>         0.1088
     41 H8          0.5111   -7.0943   -1.7293 H         1 <0>         0.0895
     42 H9          2.6510   -6.0960   -1.7424 H         1 <0>         0.0959
     43 H10         2.8666   -6.3188    0.0223 H         1 <0>         0.1026
     44 H11         4.2193   -2.7536    0.7529 H         1 <0>         0.1387
     45 H12         6.3235   -1.8603   -0.1433 H         1 <0>         0.1644
     46 H13         1.4397   -3.1256   -3.1305 H         1 <0>         0.1305
     47 H14         1.7953   -2.6269   -5.4883 H         1 <0>         0.1284
     48 H15         5.7829   -1.3132   -4.6909 H         1 <0>         0.1431
     49 H16         2.6239   -2.9933   -7.3601 H         1 <0>         0.0863
     50 H17         2.0314   -1.3351   -7.1003 H         1 <0>         0.1110
     51 H18         2.4052   -1.7072   -9.4983 H         1 <0>         0.1504
     52 H19         3.5962   -0.5353   -8.8849 H         1 <0>         0.1452
     53 H20         4.0021   -2.0616  -11.3318 H         1 <0>         0.1399
     54 H21         5.1861   -0.9816  -10.5563 H         1 <0>         0.1443
     55 H22         6.2815   -2.6228  -12.0865 H         1 <0>         0.1432
     56 H23         6.8035   -2.8367  -10.3975 H         1 <0>         0.0824
     57 H24         4.6468   -5.7609   -9.9618 H         1 <0>         0.1422
     58 H25         5.8227   -4.7196   -9.1226 H         1 <0>         0.0823
     59 H26         3.5307   -4.1595   -8.4046 H         1 <0>         0.1399
     60 H27         3.0524   -3.8848  -10.0973 H         1 <0>         0.1409
     61 H28         5.1238   -2.3998   -8.6392 H         1 <0>         0.4311
@<TRIPOS>BOND
     1    1    6 ar
     2    1    2 ar
     3    1   34 1
     4    2    3 ar
     5    2   35 1
     6    3    4 ar
     7    3   36 1
     8    4    5 ar
     9    5    6 ar
    10    5    7 1
    11    6   37 1
    12    7   11 2
    13    7    8 1
    14    8    9 2
    15    8   15 1
    16    9   14 1
    17    9   10 1
    18   10   11 1
    19   10   12 1
    20   12   13 1
    21   12   38 1
    22   12   39 1
    23   13   14 1
    24   13   40 1
    25   13   41 1
    26   14   42 1
    27   14   43 1
    28   15   20 ar
    29   15   16 ar
    30   16   17 ar
    31   16   44 1
    32   17   18 ar
    33   17   45 1
    34   18   19 ar
    35   19   24 ar
    36   19   20 ar
    37   20   21 ar
    38   21   22 ar
    39   21   46 1
    40   22   23 ar
    41   22   47 1
    42   23   24 ar
    43   23   25 1
    44   24   48 1
    45   25   26 1
    46   26   27 1
    47   26   49 1
    48   26   50 1
    49   27   28 1
    50   27   51 1
    51   27   52 1
    52   28   33 1
    53   28   29 1
    54   28   61 1
    55   29   30 1
    56   29   53 1
    57   29   54 1
    58   30   31 1
    59   30   55 1
    60   30   56 1
    61   31   32 1
    62   32   33 1
    63   32   57 1
    64   32   58 1
    65   33   59 1
    66   33   60 1
@<TRIPOS>MOLECULE
CHEMBL361237
   34    37     0     0     0
SMALL
USER_CHARGES

@<TRIPOS>ATOM
      1 C1          0.0098    1.3492   -0.5775 C.ar      1 <0>        -0.1555
      2 C2          1.1828    2.0491   -0.5604 C.ar      1 <0>        -0.0454
      3 C3          2.3791    1.3399   -0.3336 C.ar      1 <0>         0.0930
      4 C4          2.3128   -0.0609   -0.1342 C.ar      1 <0>         0.0703
      5 C5          3.5092   -0.7766    0.0937 C.ar      1 <0>        -0.0322
      6 C6          4.6822   -0.0887    0.1124 C.ar      1 <0>        -0.1525
      7 C7          4.6821    1.3054   -0.0928 C.ar      1 <0>         0.2657
      8 N1          3.5564    1.9683   -0.3060 N.ar      1 <0>        -0.4558
      9 C8          5.9576    2.0380   -0.0701 C.2       1 <0>        -0.2305
     10 C9          6.1969    3.4101   -0.1266 C.2       1 <0>         0.2157
     11 N2          7.4669    3.7783   -0.0858 N.2       1 <0>        -0.5834
     12 C10         8.4350    2.8914    0.0029 C.2       1 <0>         0.3304
     13 S1          7.6273    1.4163    0.0454 S.3       1 <0>         0.1400
     14 N3          9.7969    3.1190    0.0549 N.pl3     1 <0>        -0.7931
     15 C11         5.0963    4.3958   -0.2268 C.ar      1 <0>        -0.0344
     16 C12         3.9813    4.2867    0.6045 C.ar      1 <0>        -0.0098
     17 C13         2.9588    5.2073    0.5073 C.ar      1 <0>        -0.1665
     18 C14         3.0375    6.2391   -0.4145 C.ar      1 <0>         0.1118
     19 C15         4.1430    6.3518   -1.2425 C.ar      1 <0>        -0.1659
     20 C16         5.1736    5.4398   -1.1488 C.ar      1 <0>        -0.0505
     21 F1          2.0330    7.1378   -0.5065 F         1 <0>        -0.1399
     22 N4          1.1344   -0.6855   -0.1633 N.ar      1 <0>        -0.4631
     23 C17         0.0186   -0.0284   -0.3738 C.ar      1 <0>         0.1296
     24 H1         -0.9244    1.8647   -0.7444 H         1 <0>         0.1458
     25 H2          1.1931    3.1176   -0.7170 H         1 <0>         0.1466
     26 H3          3.4928   -1.8452    0.2496 H         1 <0>         0.1514
     27 H4          5.6123   -0.6099    0.2847 H         1 <0>         0.1419
     28 H5         10.1384    4.0264    0.0261 H         1 <0>         0.4185
     29 H6         10.4114    2.3713    0.1203 H         1 <0>         0.4228
     30 H7          3.9187    3.4826    1.3227 H         1 <0>         0.1273
     31 H8          2.0952    5.1238    1.1504 H         1 <0>         0.1347
     32 H9          4.1995    7.1574   -1.9595 H         1 <0>         0.1360
     33 H10         6.0368    5.5311   -1.7914 H         1 <0>         0.1320
     34 H11        -0.9162   -0.5692   -0.3898 H         1 <0>         0.1651
@<TRIPOS>BOND
     1    1   23 ar
     2    1    2 ar
     3    1   24 1
     4    2    3 ar
     5    2   25 1
     6    3    8 ar
     7    3    4 ar
     8    4    5 ar
     9    4   22 ar
    10    5    6 ar
    11    5   26 1
    12    6    7 ar
    13    6   27 1
    14    7    8 ar
    15    7    9 1
    16    9   13 1
    17    9   10 2
    18   10   11 1
    19   10   15 1
    20   11   12 2
    21   12   13 1
    22   12   14 1
    23   14   28 1
    24   14   29 1
    25   15   20 ar
    26   15   16 ar
    27   16   17 ar
    28   16   30 1
    29   17   18 ar
    30   17   31 1
    31   18   19 ar
    32   18   21 1
    33   19   20 ar
    34   19   32 1
    35   20   33 1
    36   22   23 ar
    37   23   34 1
@<TRIPOS>MOLECULE
CHEMBL237570
   59    63     0     0     0
SMALL
USER_CHARGES

@<TRIPOS>ATOM
      1 C1         -1.9983    0.6143    0.5496 C.3       1 <0>        -0.1105
      2 C2         -0.9516   -0.4308    0.2613 C.ar      1 <0>        -0.0568
      3 C3         -1.0179   -1.1740   -0.8993 C.ar      1 <0>        -0.0434
      4 C4         -0.0575   -2.1334   -1.1657 C.ar      1 <0>        -0.4456
      5 C5          0.9752   -2.3545   -0.2715 C.ar      1 <0>        -0.0599
      6 C6          1.0532   -1.6184    0.8924 C.ar      1 <0>        -0.1122
      7 C7          0.0903   -0.6450    1.1648 C.ar      1 <0>         0.0135
      8 C8          0.1710    0.1519    2.4074 C.2       1 <0>         0.2474
      9 N1          0.0481    1.4569    2.4839 N.2       1 <0>        -0.4425
     10 C9          0.1751    1.8458    3.7631 C.2       1 <0>         0.0486
     11 C10         0.3905    0.7113    4.5296 C.2       1 <0>         0.0544
     12 N2          0.3794   -0.3528    3.6593 N.pl3     1 <0>        -0.4393
     13 C11         0.5604   -1.7639    4.0090 C.3       1 <0>         0.0601
     14 C12         0.5869    0.6560    5.9907 C.ar      1 <0>        -0.0388
     15 C13        -0.0861   -0.3199    6.7496 C.ar      1 <0>        -0.0986
     16 C14         0.0791   -0.3906    8.0944 C.ar      1 <0>        -0.1061
     17 C15         0.9314    0.5189    8.7486 C.ar      1 <0>        -0.0044
     18 C16         1.1163    0.4629   10.1392 C.ar      1 <0>        -0.1569
     19 C17         1.9565    1.3658   10.7498 C.ar      1 <0>         0.1372
     20 C18         2.6272    2.3379   10.0007 C.ar      1 <0>        -0.1875
     21 C19         2.4660    2.4150    8.6530 C.ar      1 <0>        -0.0581
     22 C20         1.6154    1.5072    7.9956 C.ar      1 <0>        -0.0802
     23 C21         1.4371    1.5619    6.6053 C.ar      1 <0>        -0.0530
     24 O1          2.1361    1.3124   12.0956 O.3       1 <0>        -0.3151
     25 C22         3.0204    2.2764   12.6708 C.3       1 <0>         0.0245
     26 C23         0.0992    3.2368    4.2644 C.ar      1 <0>         0.0451
     27 C24        -0.4594    3.5207    5.5157 C.ar      1 <0>        -0.1573
     28 C25        -0.5101    4.8305    5.9436 C.ar      1 <0>         0.1009
     29 N3         -0.0412    5.8079    5.1910 N.ar      1 <0>        -0.4851
     30 C26         0.4933    5.5838    4.0053 C.ar      1 <0>         0.0993
     31 C27         0.5893    4.3035    3.5025 C.ar      1 <0>        -0.1486
     32 S1         -0.1500   -3.0786   -2.6499 S.o       1 <0>         1.3308
     33 O2          0.5551   -4.2731   -2.3413 O.2       1 <0>        -0.8522
     34 C28         0.8029   -2.1067   -3.8491 C.3       1 <0>        -0.4970
     35 H1         -1.6410    1.5883    0.2155 H         1 <0>         0.0830
     36 H2         -2.9176    0.3634    0.0204 H         1 <0>         0.0685
     37 H3         -2.1935    0.6470    1.6215 H         1 <0>         0.0662
     38 H4         -1.8215   -1.0067   -1.6012 H         1 <0>         0.1448
     39 H5          1.7216   -3.1052   -0.4853 H         1 <0>         0.1314
     40 H6          1.8596   -1.7919    1.5895 H         1 <0>         0.1245
     41 H7          1.6250   -1.9931    4.0552 H         1 <0>         0.0838
     42 H8          0.1043   -1.9592    4.9795 H         1 <0>         0.0942
     43 H9          0.0866   -2.3893    3.2524 H         1 <0>         0.0947
     44 H10        -0.7423   -1.0209    6.2553 H         1 <0>         0.1231
     45 H11        -0.4439   -1.1449    8.6634 H         1 <0>         0.1335
     46 H12         0.6022   -0.2838   10.7261 H         1 <0>         0.1373
     47 H13         3.2817    3.0372   10.4997 H         1 <0>         0.1336
     48 H14         2.9901    3.1716    8.0880 H         1 <0>         0.1330
     49 H15         1.9551    2.3064    6.0190 H         1 <0>         0.1293
     50 H16         3.0737    2.1229   13.7487 H         1 <0>         0.1031
     51 H17         4.0142    2.1617   12.2380 H         1 <0>         0.0571
     52 H18         2.6479    3.2798   12.4646 H         1 <0>         0.0580
     53 H19        -0.8454    2.7258    6.1367 H         1 <0>         0.1340
     54 H20        -0.9396    5.0597    6.9077 H         1 <0>         0.1557
     55 H21         0.8647    6.4141    3.4229 H         1 <0>         0.1572
     56 H22         1.0321    4.1269    2.5334 H         1 <0>         0.1377
     57 H23         1.8281   -1.9971   -3.4953 H         1 <0>         0.0816
     58 H24         0.8036   -2.6175   -4.8121 H         1 <0>         0.1086
     59 H25         0.3497   -1.1217   -3.9606 H         1 <0>         0.1130
@<TRIPOS>BOND
     1    1    2 1
     2    1   35 1
     3    1   36 1
     4    1   37 1
     5    2    7 ar
     6    2    3 ar
     7    3    4 ar
     8    3   38 1
     9    4    5 ar
    10    4   32 1
    11    5    6 ar
    12    5   39 1
    13    6    7 ar
    14    6   40 1
    15    7    8 1
    16    8   12 1
    17    8    9 2
    18    9   10 1
    19   10   11 2
    20   10   26 1
    21   11   12 1
    22   11   14 1
    23   12   13 1
    24   13   41 1
    25   13   42 1
    26   13   43 1
    27   14   23 ar
    28   14   15 ar
    29   15   16 ar
    30   15   44 1
    31   16   17 ar
    32   16   45 1
    33   17   22 ar
    34   17   18 ar
    35   18   19 ar
    36   18   46 1
    37   19   20 ar
    38   19   24 1
    39   20   21 ar
    40   20   47 1
    41   21   22 ar
    42   21   48 1
    43   22   23 ar
    44   23   49 1
    45   24   25 1
    46   25   50 1
    47   25   51 1
    48   25   52 1
    49   26   31 ar
    50   26   27 ar
    51   27   28 ar
    52   27   53 1
    53   28   29 ar
    54   28   54 1
    55   29   30 ar
    56   30   31 ar
    57   30   55 1
    58   31   56 1
    59   32   33 2
    60   32   34 1
    61   34   57 1
    62   34   58 1
    63   34   59 1
@<TRIPOS>MOLECULE
CHEMBL237570__1
   59    63     0     0     0
SMALL
USER_CHARGES

@<TRIPOS>ATOM
      1 C1         -1.9983    0.6143    0.5496 C.3       1 <0>        -0.1119
      2 C2         -0.9516   -0.4308    0.2613 C.ar      1 <0>        -0.0542
      3 C3         -1.0179   -1.1740   -0.8993 C.ar      1 <0>        -0.0547
      4 C4         -0.0575   -2.1334   -1.1657 C.ar      1 <0>        -0.4463
      5 C5          0.9752   -2.3545   -0.2715 C.ar      1 <0>        -0.0483
      6 C6          1.0532   -1.6184    0.8924 C.ar      1 <0>        -0.1151
      7 C7          0.0903   -0.6450    1.1648 C.ar      1 <0>         0.0131
      8 C8          0.1710    0.1519    2.4074 C.2       1 <0>         0.2478
      9 N1          0.0481    1.4569    2.4839 N.2       1 <0>        -0.4438
     10 C9          0.1751    1.8458    3.7631 C.2       1 <0>         0.0485
     11 C10         0.3905    0.7113    4.5296 C.2       1 <0>         0.0545
     12 N2          0.3794   -0.3528    3.6593 N.pl3     1 <0>        -0.4393
     13 C11         0.5604   -1.7639    4.0090 C.3       1 <0>         0.0601
     14 C12         0.5869    0.6560    5.9907 C.ar      1 <0>        -0.0385
     15 C13        -0.0861   -0.3199    6.7496 C.ar      1 <0>        -0.0985
     16 C14         0.0791   -0.3906    8.0944 C.ar      1 <0>        -0.1061
     17 C15         0.9314    0.5189    8.7486 C.ar      1 <0>        -0.0044
     18 C16         1.1163    0.4629   10.1392 C.ar      1 <0>        -0.1570
     19 C17         1.9565    1.3658   10.7498 C.ar      1 <0>         0.1372
     20 C18         2.6272    2.3379   10.0007 C.ar      1 <0>        -0.1876
     21 C19         2.4660    2.4150    8.6530 C.ar      1 <0>        -0.0580
     22 C20         1.6154    1.5072    7.9956 C.ar      1 <0>        -0.0802
     23 C21         1.4371    1.5619    6.6053 C.ar      1 <0>        -0.0529
     24 O1          2.1361    1.3124   12.0956 O.3       1 <0>        -0.3151
     25 C22         3.0204    2.2764   12.6708 C.3       1 <0>         0.0245
     26 C23         0.0992    3.2368    4.2644 C.ar      1 <0>         0.0448
     27 C24        -0.4594    3.5207    5.5157 C.ar      1 <0>        -0.1574
     28 C25        -0.5101    4.8305    5.9436 C.ar      1 <0>         0.1009
     29 N3         -0.0412    5.8079    5.1910 N.ar      1 <0>        -0.4851
     30 C26         0.4933    5.5838    4.0053 C.ar      1 <0>         0.0993
     31 C27         0.5893    4.3035    3.5025 C.ar      1 <0>        -0.1486
     32 S1         -0.1500   -3.0786   -2.6499 S.o       1 <0>         1.3305
     33 O2         -1.5274   -3.0400   -2.9968 O.2       1 <0>        -0.8510
     34 C28         0.8029   -2.1067   -3.8491 C.3       1 <0>        -0.4972
     35 H1         -1.6410    1.5883    0.2155 H         1 <0>         0.0824
     36 H2         -2.9176    0.3634    0.0204 H         1 <0>         0.0649
     37 H3         -2.1935    0.6470    1.6215 H         1 <0>         0.0677
     38 H4         -1.8215   -1.0067   -1.6012 H         1 <0>         0.1327
     39 H5          1.7216   -3.1052   -0.4853 H         1 <0>         0.1438
     40 H6          1.8596   -1.7919    1.5895 H         1 <0>         0.1294
     41 H7          1.6250   -1.9931    4.0552 H         1 <0>         0.0851
     42 H8          0.1043   -1.9592    4.9795 H         1 <0>         0.0933
     43 H9          0.0866   -2.3893    3.2524 H         1 <0>         0.0952
     44 H10        -0.7423   -1.0209    6.2553 H         1 <0>         0.1231
     45 H11        -0.4439   -1.1449    8.6634 H         1 <0>         0.1334
     46 H12         0.6022   -0.2838   10.7261 H         1 <0>         0.1372
     47 H13         3.2817    3.0372   10.4997 H         1 <0>         0.1335
     48 H14         2.9901    3.1716    8.0880 H         1 <0>         0.1330
     49 H15         1.9551    2.3064    6.0190 H         1 <0>         0.1293
     50 H16         3.0737    2.1229   13.7487 H         1 <0>         0.1031
     51 H17         4.0142    2.1617   12.2380 H         1 <0>         0.0572
     52 H18         2.6479    3.2798   12.4646 H         1 <0>         0.0579
     53 H19        -0.8454    2.7258    6.1367 H         1 <0>         0.1341
     54 H20        -0.9396    5.0597    6.9077 H         1 <0>         0.1558
     55 H21         0.8647    6.4141    3.4229 H         1 <0>         0.1572
     56 H22         1.0321    4.1269    2.5334 H         1 <0>         0.1376
     57 H23         1.8281   -1.9971   -3.4953 H         1 <0>         0.1123
     58 H24         0.8036   -2.6175   -4.8121 H         1 <0>         0.1085
     59 H25         0.3497   -1.1217   -3.9606 H         1 <0>         0.0822
@<TRIPOS>BOND
     1    1    2 1
     2    1   35 1
     3    1   36 1
     4    1   37 1
     5    2    7 ar
     6    2    3 ar
     7    3    4 ar
     8    3   38 1
     9    4    5 ar
    10    4   32 1
    11    5    6 ar
    12    5   39 1
    13    6    7 ar
    14    6   40 1
    15    7    8 1
    16    8   12 1
    17    8    9 2
    18    9   10 1
    19   10   11 2
    20   10   26 1
    21   11   12 1
    22   11   14 1
    23   12   13 1
    24   13   41 1
    25   13   42 1
    26   13   43 1
    27   14   23 ar
    28   14   15 ar
    29   15   16 ar
    30   15   44 1
    31   16   17 ar
    32   16   45 1
    33   17   22 ar
    34   17   18 ar
    35   18   19 ar
    36   18   46 1
    37   19   20 ar
    38   19   24 1
    39   20   21 ar
    40   20   47 1
    41   21   22 ar
    42   21   48 1
    43   22   23 ar
    44   23   49 1
    45   24   25 1
    46   25   50 1
    47   25   51 1
    48   25   52 1
    49   26   31 ar
    50   26   27 ar
    51   27   28 ar
    52   27   53 1
    53   28   29 ar
    54   28   54 1
    55   29   30 ar
    56   30   31 ar
    57   30   55 1
    58   31   56 1
    59   32   33 2
    60   32   34 1
    61   34   57 1
    62   34   58 1
    63   34   59 1
@<TRIPOS>MOLECULE
CHEMBL575492
   52    55     0     0     0
SMALL
USER_CHARGES

@<TRIPOS>ATOM
      1 C1         -5.6346   -1.9027   -2.8802 C.3       1 <0>        -0.1165
      2 C2         -4.4615   -2.4632   -2.1181 C.ar      1 <0>        -0.0856
      3 C3         -3.1777   -2.3481   -2.6275 C.ar      1 <0>        -0.1550
      4 C4         -2.1236   -2.8789   -1.8928 C.ar      1 <0>         0.1132
      5 C5         -2.3968   -3.5061   -0.6731 C.ar      1 <0>         0.1425
      6 N1         -3.6425   -3.5928   -0.2258 N.ar      1 <0>        -0.4302
      7 C6         -4.6562   -3.0922   -0.9011 C.ar      1 <0>         0.0987
      8 C7         -6.0509   -3.2126   -0.3431 C.3       1 <0>        -0.1018
      9 C8         -1.2865   -4.0785    0.1253 C.ar      1 <0>         0.1696
     10 C9         -1.4317   -4.2283    1.5033 C.ar      1 <0>        -0.1328
     11 C10        -0.3866   -4.7646    2.2352 C.ar      1 <0>        -0.0807
     12 C11         0.7709   -5.1340    1.5644 C.ar      1 <0>        -0.1663
     13 C12         0.8469   -4.9574    0.1951 C.ar      1 <0>         0.1002
     14 N2         -0.1646   -4.4491   -0.4786 N.ar      1 <0>        -0.4533
     15 O1         -0.8487   -2.7901   -2.3524 O.3       1 <0>        -0.2178
     16 C13        -0.6463   -2.2058   -3.5607 C.ar      1 <0>         0.1672
     17 C14        -0.5518   -0.8191   -3.6767 C.ar      1 <0>        -0.2385
     18 C15        -0.3459   -0.2594   -4.9196 C.ar      1 <0>         0.1615
     19 N3         -0.2378   -1.0172   -5.9952 N.ar      1 <0>        -0.5259
     20 C16        -0.3215   -2.3383   -5.9293 C.ar      1 <0>         0.4076
     21 C17        -0.5224   -2.9750   -4.7116 C.ar      1 <0>        -0.2286
     22 N4         -0.2014   -3.0946   -7.0902 N.pl3     1 <0>        -0.6480
     23 C18        -0.1498   -2.4598   -8.3371 C.ar      1 <0>         0.1384
     24 C19        -0.7340   -1.2130   -8.5077 C.ar      1 <0>        -0.0925
     25 C20        -0.6818   -0.5885   -9.7395 C.ar      1 <0>        -0.1330
     26 C21        -0.0482   -1.2031  -10.8037 C.ar      1 <0>        -0.1044
     27 C22         0.5364   -2.4457  -10.6413 C.ar      1 <0>        -0.1866
     28 C23         0.4934   -3.0759   -9.4085 C.ar      1 <0>         0.0890
     29 O2          1.0732   -4.2953   -9.2457 O.3       1 <0>        -0.3227
     30 C24         1.7146   -4.8663  -10.3879 C.3       1 <0>         0.0300
     31 H1         -5.8017   -0.8681   -2.5805 H         1 <0>         0.0804
     32 H2         -5.4256   -1.9421   -3.9493 H         1 <0>         0.0712
     33 H3         -6.5249   -2.4925   -2.6620 H         1 <0>         0.0787
     34 H4         -3.0003   -1.8578   -3.5733 H         1 <0>         0.1427
     35 H5         -6.5030   -4.1411   -0.6920 H         1 <0>         0.0789
     36 H6         -6.0075   -3.2165    0.7460 H         1 <0>         0.0788
     37 H7         -6.6512   -2.3673   -0.6798 H         1 <0>         0.0787
     38 H8         -2.3467   -3.9298    1.9932 H         1 <0>         0.1420
     39 H9         -0.4698   -4.8925    3.3043 H         1 <0>         0.1379
     40 H10         1.6044   -5.5551    2.1069 H         1 <0>         0.1367
     41 H11         1.7464   -5.2435   -0.3297 H         1 <0>         0.1584
     42 H12        -0.6393   -0.1908   -2.8026 H         1 <0>         0.1408
     43 H13        -0.2724    0.8138   -5.0148 H         1 <0>         0.1677
     44 H14        -0.5853   -4.0520   -4.6602 H         1 <0>         0.1428
     45 H15        -1.2299   -0.7308   -7.6782 H         1 <0>         0.1514
     46 H16        -1.1372    0.3819   -9.8712 H         1 <0>         0.1261
     47 H17        -0.0101   -0.7116  -11.7646 H         1 <0>         0.1244
     48 H18         1.0301   -2.9231  -11.4748 H         1 <0>         0.1299
     49 H19         0.9858   -4.9930  -11.1884 H         1 <0>         0.0558
     50 H20         2.5130   -4.2051  -10.7247 H         1 <0>         0.0559
     51 H21         2.1343   -5.8364  -10.1217 H         1 <0>         0.1001
     52 H22        -0.1533   -4.0619   -7.0361 H         1 <0>         0.4230
@<TRIPOS>BOND
     1    1    2 1
     2    1   31 1
     3    1   32 1
     4    1   33 1
     5    2    7 ar
     6    2    3 ar
     7    3    4 ar
     8    3   34 1
     9    4    5 ar
    10    4   15 1
    11    5    6 ar
    12    5    9 1
    13    6    7 ar
    14    7    8 1
    15    8   35 1
    16    8   36 1
    17    8   37 1
    18    9   14 ar
    19    9   10 ar
    20   10   11 ar
    21   10   38 1
    22   11   12 ar
    23   11   39 1
    24   12   13 ar
    25   12   40 1
    26   13   14 ar
    27   13   41 1
    28   15   16 1
    29   16   17 ar
    30   16   21 ar
    31   17   42 1
    32   17   18 ar
    33   18   43 1
    34   18   19 ar
    35   19   20 ar
    36   20   22 1
    37   20   21 ar
    38   21   44 1
    39   22   23 1
    40   22   52 1
    41   23   28 ar
    42   23   24 ar
    43   24   25 ar
    44   24   45 1
    45   25   26 ar
    46   25   46 1
    47   26   27 ar
    48   26   47 1
    49   27   28 ar
    50   27   48 1
    51   28   29 1
    52   29   30 1
    53   30   49 1
    54   30   50 1
    55   30   51 1
@<TRIPOS>MOLECULE
CHEMBL575492__1
   52    55     0     0     0
SMALL
USER_CHARGES

@<TRIPOS>ATOM
      1 C1          4.0589   -4.8043   -3.5704 C.3       1 <0>        -0.1163
      2 C2          2.9022   -4.6284   -2.6206 C.ar      1 <0>        -0.0874
      3 C3          1.8721   -3.7535   -2.9281 C.ar      1 <0>        -0.1555
      4 C4          0.8237   -3.6212   -2.0248 C.ar      1 <0>         0.1114
      5 C5          0.8475   -4.3722   -0.8454 C.ar      1 <0>         0.1452
      6 N1          1.8553   -5.1971   -0.5937 N.ar      1 <0>        -0.4308
      7 C6          2.8564   -5.3433   -1.4368 C.ar      1 <0>         0.0999
      8 C7          3.9726   -6.2996   -1.1041 C.3       1 <0>        -0.1022
      9 C8         -0.2612   -4.2453    0.1306 C.ar      1 <0>         0.1688
     10 C9         -0.5346   -5.2945    1.0063 C.ar      1 <0>        -0.1329
     11 C10        -1.5728   -5.1613    1.9119 C.ar      1 <0>        -0.0812
     12 C11        -2.3044   -3.9820    1.9121 C.ar      1 <0>        -0.1662
     13 C12        -1.9784   -2.9814    1.0151 C.ar      1 <0>         0.1010
     14 N2         -0.9816   -3.1317    0.1670 N.ar      1 <0>        -0.4520
     15 O1         -0.2071   -2.7756   -2.2835 O.3       1 <0>        -0.2133
     16 C13        -0.1483   -2.0273   -3.4118 C.2       1 <0>         0.1673
     17 C14        -0.2331   -2.6417   -4.6792 C.2       1 <0>        -0.2570
     18 C15        -0.1744   -1.8956   -5.8003 C.2       1 <0>         0.1532
     19 N3         -0.0329   -0.5420   -5.7337 N.pl3     1 <0>        -0.6290
     20 C16         0.0532    0.0938   -4.5186 C.2       1 <0>         0.4265
     21 C17        -0.0108   -0.6575   -3.3322 C.2       1 <0>        -0.1552
     22 N4          0.1913    1.4135   -4.4651 N.2       1 <0>        -0.5534
     23 C18         0.1132    2.1554   -5.6097 C.ar      1 <0>         0.0942
     24 C19        -0.9670    1.9922   -6.4798 C.ar      1 <0>        -0.1556
     25 C20        -1.0400    2.7454   -7.6342 C.ar      1 <0>        -0.1311
     26 C21        -0.0469    3.6611   -7.9329 C.ar      1 <0>        -0.1042
     27 C22         1.0286    3.8310   -7.0780 C.ar      1 <0>        -0.1890
     28 C23         1.1138    3.0889   -5.9143 C.ar      1 <0>         0.1186
     29 O2          2.1675    3.2597   -5.0714 O.3       1 <0>        -0.2999
     30 C24         3.1484    4.2286   -5.4470 C.3       1 <0>         0.0247
     31 H1          3.8315   -5.6035   -4.2759 H         1 <0>         0.0796
     32 H2          4.2261   -3.8752   -4.1154 H         1 <0>         0.0711
     33 H3          4.9558   -5.0615   -3.0069 H         1 <0>         0.0784
     34 H4          1.8839   -3.1875   -3.8478 H         1 <0>         0.1473
     35 H5          4.7480   -5.7734   -0.5474 H         1 <0>         0.0791
     36 H6          3.5820   -7.1174   -0.4985 H         1 <0>         0.0787
     37 H7          4.3951   -6.6996   -2.0258 H         1 <0>         0.0784
     38 H8          0.0551   -6.1989    0.9785 H         1 <0>         0.1416
     39 H9         -1.8085   -5.9574    2.6026 H         1 <0>         0.1374
     40 H10        -3.1209   -3.8472    2.6061 H         1 <0>         0.1366
     41 H11        -2.5461   -2.0627    1.0126 H         1 <0>         0.1593
     42 H12        -0.3450   -3.7134   -4.7513 H         1 <0>         0.1492
     43 H13        -0.2400   -2.3774   -6.7647 H         1 <0>         0.1699
     44 H14         0.0510   -0.1688   -2.3710 H         1 <0>         0.1623
     45 H15        -1.7436    1.2777   -6.2500 H         1 <0>         0.1245
     46 H16        -1.8753    2.6191   -8.3071 H         1 <0>         0.1244
     47 H17        -0.1109    4.2464   -8.8382 H         1 <0>         0.1253
     48 H18         1.8002    4.5475   -7.3181 H         1 <0>         0.1303
     49 H19         3.5835    3.9517   -6.4073 H         1 <0>         0.0526
     50 H20         2.6781    5.2084   -5.5302 H         1 <0>         0.0548
     51 H21         3.9319    4.2647   -4.6901 H         1 <0>         0.1002
     52 H22         0.0077   -0.0224   -6.5517 H         1 <0>         0.4202
@<TRIPOS>BOND
     1    1    2 1
     2    1   31 1
     3    1   32 1
     4    1   33 1
     5    2    7 ar
     6    2    3 ar
     7    3    4 ar
     8    3   34 1
     9    4    5 ar
    10    4   15 1
    11    5    6 ar
    12    5    9 1
    13    6    7 ar
    14    7    8 1
    15    8   35 1
    16    8   36 1
    17    8   37 1
    18    9   14 ar
    19    9   10 ar
    20   10   11 ar
    21   10   38 1
    22   11   12 ar
    23   11   39 1
    24   12   13 ar
    25   12   40 1
    26   13   14 ar
    27   13   41 1
    28   15   16 1
    29   16   17 1
    30   16   21 2
    31   17   42 1
    32   17   18 2
    33   18   43 1
    34   18   19 1
    35   19   52 1
    36   19   20 1
    37   20   22 2
    38   20   21 1
    39   21   44 1
    40   22   23 1
    41   23   28 ar
    42   23   24 ar
    43   24   25 ar
    44   24   45 1
    45   25   26 ar
    46   25   46 1
    47   26   27 ar
    48   26   47 1
    49   27   28 ar
    50   27   48 1
    51   28   29 1
    52   29   30 1
    53   30   49 1
    54   30   50 1
    55   30   51 1
@<TRIPOS>MOLECULE
CHEMBL575492__2
   52    55     0     0     0
SMALL
USER_CHARGES

@<TRIPOS>ATOM
      1 C1          5.6605   -3.5351   -3.4397 C.3       1 <0>        -0.1154
      2 C2          4.4557   -3.7056   -2.5508 C.ar      1 <0>        -0.0872
      3 C3          3.2600   -3.0796   -2.8664 C.ar      1 <0>        -0.1533
      4 C4          2.1726   -3.2634   -2.0199 C.ar      1 <0>         0.1110
      5 C5          2.3252   -4.0690   -0.8871 C.ar      1 <0>         0.1448
      6 N1          3.4897   -4.6477   -0.6255 N.ar      1 <0>        -0.4307
      7 C6          4.5319   -4.4930   -1.4155 C.ar      1 <0>         0.1003
      8 C7          5.8295   -5.1792   -1.0744 C.3       1 <0>        -0.1020
      9 C8          1.1775   -4.2774    0.0280 C.ar      1 <0>         0.1684
     10 C9          1.1264   -5.4208    0.8233 C.ar      1 <0>        -0.1326
     11 C10         0.0487   -5.6014    1.6726 C.ar      1 <0>        -0.0810
     12 C11        -0.9438   -4.6317    1.6990 C.ar      1 <0>        -0.1658
     13 C12        -0.8291   -3.5215    0.8827 C.ar      1 <0>         0.1004
     14 N2          0.2101   -3.3712    0.0871 N.ar      1 <0>        -0.4519
     15 O1          0.9812   -2.6695   -2.2887 O.3       1 <0>        -0.2149
     16 C13         0.8587   -1.9875   -3.4533 C.2       1 <0>         0.1765
     17 C14         0.8909   -2.6724   -4.6866 C.2       1 <0>        -0.2647
     18 C15         0.7689   -1.9923   -5.8439 C.2       1 <0>         0.1664
     19 N3          0.6129   -0.6386   -5.8472 N.pl3     1 <0>        -0.5861
     20 C16         0.5765    0.0647   -4.6672 C.2       1 <0>         0.4237
     21 C17         0.6956   -0.6183   -3.4443 C.2       1 <0>        -0.2244
     22 N4          0.4245    1.3838   -4.6820 N.2       1 <0>        -0.5729
     23 C18         0.5252    2.0961   -3.5204 C.ar      1 <0>         0.1144
     24 C19         1.6067    1.8890   -2.6613 C.ar      1 <0>        -0.1340
     25 C20         1.7024    2.6124   -1.4897 C.ar      1 <0>        -0.1344
     26 C21         0.7309    3.5415   -1.1628 C.ar      1 <0>        -0.1034
     27 C22        -0.3457    3.7547   -2.0066 C.ar      1 <0>        -0.1920
     28 C23        -0.4535    3.0430   -3.1872 C.ar      1 <0>         0.1183
     29 O2         -1.5081    3.2564   -4.0191 O.3       1 <0>        -0.3026
     30 C24        -2.4660    4.2365   -3.6141 C.3       1 <0>         0.0254
     31 H1          5.7143   -4.3667   -4.1423 H         1 <0>         0.0802
     32 H2          5.5758   -2.5986   -3.9910 H         1 <0>         0.0705
     33 H3          6.5631   -3.5167   -2.8288 H         1 <0>         0.0784
     34 H4          3.1752   -2.4632   -3.7491 H         1 <0>         0.1450
     35 H5          6.4314   -4.5253   -0.4434 H         1 <0>         0.0792
     36 H6          5.6209   -6.1069   -0.5417 H         1 <0>         0.0787
     37 H7          6.3749   -5.4016   -1.9916 H         1 <0>         0.0783
     38 H8          1.9165   -6.1557    0.7772 H         1 <0>         0.1418
     39 H9         -0.0186   -6.4775    2.3006 H         1 <0>         0.1377
     40 H10        -1.7978   -4.7434    2.3506 H         1 <0>         0.1367
     41 H11        -1.6000   -2.7653    0.9006 H         1 <0>         0.1584
     42 H12         1.0141   -3.7452   -4.7033 H         1 <0>         0.1491
     43 H13         0.7954   -2.5276   -6.7815 H         1 <0>         0.1772
     44 H14         0.6636   -0.0773   -2.5101 H         1 <0>         0.1592
     45 H15         2.3665    1.1640   -2.9131 H         1 <0>         0.1236
     46 H16         2.5387    2.4522   -0.8254 H         1 <0>         0.1222
     47 H17         0.8126    4.1033   -0.2441 H         1 <0>         0.1235
     48 H18        -1.1004    4.4815   -1.7445 H         1 <0>         0.1288
     49 H19        -2.9012    3.9458   -2.6580 H         1 <0>         0.0527
     50 H20        -1.9743    5.2038   -3.5104 H         1 <0>         0.0537
     51 H21        -3.2529    4.3075   -4.3650 H         1 <0>         0.0982
     52 H22         0.5271   -0.1670   -6.6904 H         1 <0>         0.4266
@<TRIPOS>BOND
     1    1    2 1
     2    1   31 1
     3    1   32 1
     4    1   33 1
     5    2    7 ar
     6    2    3 ar
     7    3    4 ar
     8    3   34 1
     9    4    5 ar
    10    4   15 1
    11    5    6 ar
    12    5    9 1
    13    6    7 ar
    14    7    8 1
    15    8   35 1
    16    8   36 1
    17    8   37 1
    18    9   14 ar
    19    9   10 ar
    20   10   11 ar
    21   10   38 1
    22   11   12 ar
    23   11   39 1
    24   12   13 ar
    25   12   40 1
    26   13   14 ar
    27   13   41 1
    28   15   16 1
    29   16   17 1
    30   16   21 2
    31   17   42 1
    32   17   18 2
    33   18   43 1
    34   18   19 1
    35   19   52 1
    36   19   20 1
    37   20   22 2
    38   20   21 1
    39   21   44 1
    40   22   23 1
    41   23   28 ar
    42   23   24 ar
    43   24   25 ar
    44   24   45 1
    45   25   26 ar
    46   25   46 1
    47   26   27 ar
    48   26   47 1
    49   27   28 ar
    50   27   48 1
    51   28   29 1
    52   29   30 1
    53   30   49 1
    54   30   50 1
    55   30   51 1
@<TRIPOS>MOLECULE
CHEMBL575492__3
   53    56     0     0     0
SMALL
USER_CHARGES

@<TRIPOS>ATOM
      1 C1         -5.2247   -1.8489   -2.7777 C.3       1 <0>        -0.1200
      2 C2         -4.0400   -2.3824   -2.0142 C.ar      1 <0>        -0.0852
      3 C3         -2.7677   -2.3116   -2.5592 C.ar      1 <0>        -0.1556
      4 C4         -1.7022   -2.8153   -1.8219 C.ar      1 <0>         0.0893
      5 C5         -1.9530   -3.3720   -0.5638 C.ar      1 <0>         0.1723
      6 N1         -3.1883   -3.4183   -0.0831 N.ar      1 <0>        -0.4258
      7 C6         -4.2123   -2.9421   -0.7604 C.ar      1 <0>         0.1224
      8 C7         -5.5944   -3.0141   -0.1639 C.3       1 <0>        -0.1107
      9 C8         -0.8302   -3.9145    0.2381 C.ar      1 <0>         0.1529
     10 C9         -0.9436   -3.9876    1.6253 C.ar      1 <0>        -0.1249
     11 C10         0.1127   -4.4969    2.3603 C.ar      1 <0>        -0.0772
     12 C11         1.2492   -4.9169    1.6835 C.ar      1 <0>        -0.1557
     13 C12         1.2939   -4.8157    0.3052 C.ar      1 <0>         0.0990
     14 N2          0.2722   -4.3317   -0.3711 N.ar      1 <0>        -0.4595
     15 O1         -0.4380   -2.7679   -2.3157 O.3       1 <0>        -0.2121
     16 C13        -0.2508   -2.2004   -3.5345 C.ar      1 <0>         0.2452
     17 C14         0.0220   -0.8379   -3.6536 C.ar      1 <0>        -0.1815
     18 C15         0.2066   -0.2948   -4.9073 C.ar      1 <0>         0.1694
     19 N3          0.1284   -1.0460   -5.9900 N.ar      1 <0>        -0.4993
     20 C16        -0.1288   -2.3444   -5.9214 C.ar      1 <0>         0.4490
     21 C17        -0.3207   -2.9641   -4.6936 C.ar      1 <0>        -0.2062
     22 N4         -0.2014   -3.0946   -7.0902 N.pl3     1 <0>        -0.6280
     23 C18        -0.9184   -4.2971   -7.1068 C.ar      1 <0>         0.0939
     24 C19        -1.9538   -4.5021   -6.2063 C.ar      1 <0>        -0.1180
     25 C20        -2.6601   -5.6899   -6.2247 C.ar      1 <0>        -0.1196
     26 C21        -2.3376   -6.6759   -7.1389 C.ar      1 <0>        -0.0702
     27 C22        -1.3070   -6.4787   -8.0394 C.ar      1 <0>        -0.1749
     28 C23        -0.5979   -5.2888   -8.0314 C.ar      1 <0>         0.1243
     29 O2          0.4120   -5.0911   -8.9205 O.3       1 <0>        -0.3221
     30 C24         0.6846   -6.1514   -9.8390 C.3       1 <0>         0.0249
     31 H1         -5.3725   -0.7976   -2.5309 H         1 <0>         0.0845
     32 H2         -5.0423   -1.9488   -3.8476 H         1 <0>         0.0708
     33 H3         -6.1162   -2.4145   -2.5067 H         1 <0>         0.0849
     34 H4         -2.6078   -1.8755   -3.5343 H         1 <0>         0.1355
     35 H5         -6.0654   -3.9542   -0.4509 H         1 <0>         0.0863
     36 H6         -5.5245   -2.9596    0.9225 H         1 <0>         0.0852
     37 H7         -6.1928   -2.1806   -0.5318 H         1 <0>         0.0837
     38 H8         -1.8430   -3.6513    2.1197 H         1 <0>         0.1445
     39 H9          0.0541   -4.5656    3.4365 H         1 <0>         0.1425
     40 H10         2.0908   -5.3187    2.2282 H         1 <0>         0.1410
     41 H11         2.1770   -5.1413   -0.2244 H         1 <0>         0.1607
     42 H12         0.0876   -0.2151   -2.7737 H         1 <0>         0.1900
     43 H13         0.4177    0.7598   -5.0049 H         1 <0>         0.2189
     44 H14        -0.5253   -4.0232   -4.6404 H         1 <0>         0.1931
     45 H15         0.2624   -0.6366   -6.8592 H         1 <0>         0.4468
     46 H16        -2.2076   -3.7338   -5.4909 H         1 <0>         0.1345
     47 H17        -3.4656   -5.8486   -5.5230 H         1 <0>         0.1404
     48 H18        -2.8920   -7.6027   -7.1494 H         1 <0>         0.1413
     49 H19        -1.0575   -7.2511   -8.7519 H         1 <0>         0.1459
     50 H20         1.5105   -5.8648  -10.4900 H         1 <0>         0.1099
     51 H21         0.9534   -7.0512   -9.2857 H         1 <0>         0.0646
     52 H22        -0.2023   -6.3468  -10.4418 H         1 <0>         0.0644
     53 H23         0.2447   -2.7848   -7.8939 H         1 <0>         0.4343
@<TRIPOS>BOND
     1    1    2 1
     2    1   31 1
     3    1   32 1
     4    1   33 1
     5    2    7 ar
     6    2    3 ar
     7    3    4 ar
     8    3   34 1
     9    4    5 ar
    10    4   15 1
    11    5    6 ar
    12    5    9 1
    13    6    7 ar
    14    7    8 1
    15    8   35 1
    16    8   36 1
    17    8   37 1
    18    9   14 ar
    19    9   10 ar
    20   10   11 ar
    21   10   38 1
    22   11   12 ar
    23   11   39 1
    24   12   13 ar
    25   12   40 1
    26   13   14 ar
    27   13   41 1
    28   15   16 1
    29   16   17 ar
    30   16   21 ar
    31   17   42 1
    32   17   18 ar
    33   18   43 1
    34   18   19 ar
    35   19   45 1
    36   19   20 ar
    37   20   22 1
    38   20   21 ar
    39   21   44 1
    40   22   23 1
    41   22   53 1
    42   23   28 ar
    43   23   24 ar
    44   24   25 ar
    45   24   46 1
    46   25   26 ar
    47   25   47 1
    48   26   27 ar
    49   26   48 1
    50   27   28 ar
    51   27   49 1
    52   28   29 1
    53   29   30 1
    54   30   50 1
    55   30   51 1
    56   30   52 1
@<TRIPOS>MOLECULE
CHEMBL204170
   41    45     0     0     0
SMALL
USER_CHARGES

@<TRIPOS>ATOM
      1 C1         -0.0178    1.4608    0.0101 C.3       1 <0>         0.0801
      2 N1          0.0021   -0.0041    0.0020 N.pl3     1 <0>        -0.4971
      3 C2          0.0085   -0.8048   -1.0983 C.2       1 <0>         0.2549
      4 N2          0.0269   -2.0557   -0.7413 N.2       1 <0>        -0.4983
      5 C3          0.0336   -2.1445    0.6137 C.ar      1 <0>         0.0448
      6 C4          0.0238   -0.8288    1.1098 C.ar      1 <0>         0.0467
      7 C5          0.0333   -0.6046    2.4774 C.ar      1 <0>        -0.0518
      8 C6          0.0559   -1.6865    3.3503 C.ar      1 <0>         0.0118
      9 C7          0.0689   -2.9924    2.8510 C.ar      1 <0>        -0.1123
     10 C8          0.0515   -3.2207    1.5063 C.ar      1 <0>        -0.0719
     11 C9          0.0667   -1.4546    4.8155 C.2       1 <0>        -0.1511
     12 C10         1.0788   -1.7696    5.6753 C.2       1 <0>         0.0770
     13 N3          0.7040   -1.3966    6.9145 N.pl3     1 <0>        -0.3818
     14 N4         -0.5821   -0.8359    6.8330 N.2       1 <0>        -0.2536
     15 C11        -0.9693   -0.8600    5.5776 C.2       1 <0>         0.1309
     16 C12        -2.2616   -0.3586    5.0529 C.ar      1 <0>         0.2020
     17 C13        -3.3676   -0.2810    5.8979 C.ar      1 <0>        -0.1412
     18 C14        -4.5672    0.1892    5.3935 C.ar      1 <0>        -0.0749
     19 C15        -4.6224    0.5670    4.0589 C.ar      1 <0>        -0.1664
     20 C16        -3.4869    0.4639    3.2774 C.ar      1 <0>         0.1031
     21 N5         -2.3551    0.0179    3.7839 N.ar      1 <0>        -0.4550
     22 C17         1.7573   -1.7013    7.8970 C.3       1 <0>         0.1293
     23 C18         2.6895   -2.7177    7.2038 C.3       1 <0>        -0.1322
     24 C19         2.4611   -2.3872    5.7114 C.3       1 <0>        -0.0671
     25 H1          1.0048    1.8381    0.0023 H         1 <0>         0.0726
     26 H2         -0.5450    1.8219   -0.8730 H         1 <0>         0.0874
     27 H3         -0.5280    1.8123    0.9069 H         1 <0>         0.0840
     28 H4         -0.0010   -0.4530   -2.1193 H         1 <0>         0.2108
     29 H5          0.0236    0.4043    2.8627 H         1 <0>         0.1194
     30 H6          0.0868   -3.8274    3.5357 H         1 <0>         0.1227
     31 H7          0.0633   -4.2332    1.1307 H         1 <0>         0.1263
     32 H8         -3.2893   -0.5839    6.9316 H         1 <0>         0.1390
     33 H9         -5.4412    0.2603    6.0240 H         1 <0>         0.1386
     34 H10        -5.5440    0.9377    3.6351 H         1 <0>         0.1370
     35 H11        -3.5269    0.7568    2.2387 H         1 <0>         0.1557
     36 H12         2.3091   -0.7961    8.1509 H         1 <0>         0.0924
     37 H13         1.3205   -2.1411    8.7936 H         1 <0>         0.0955
     38 H14         3.7288   -2.5494    7.4859 H         1 <0>         0.1051
     39 H15         2.3868   -3.7406    7.4279 H         1 <0>         0.0901
     40 H16         2.4884   -3.2966    5.1111 H         1 <0>         0.0995
     41 H17         3.2068   -1.6742    5.3597 H         1 <0>         0.0980
@<TRIPOS>BOND
     1    1    2 1
     2    1   25 1
     3    1   26 1
     4    1   27 1
     5    2    6 1
     6    2    3 1
     7    3    4 2
     8    3   28 1
     9    4    5 1
    10    5   10 ar
    11    5    6 ar
    12    6    7 ar
    13    7    8 ar
    14    7   29 1
    15    8    9 ar
    16    8   11 1
    17    9   10 ar
    18    9   30 1
    19   10   31 1
    20   11   15 1
    21   11   12 2
    22   12   24 1
    23   12   13 1
    24   13   14 1
    25   13   22 1
    26   14   15 2
    27   15   16 1
    28   16   21 ar
    29   16   17 ar
    30   17   18 ar
    31   17   32 1
    32   18   19 ar
    33   18   33 1
    34   19   20 ar
    35   19   34 1
    36   20   21 ar
    37   20   35 1
    38   22   23 1
    39   22   36 1
    40   22   37 1
    41   23   24 1
    42   23   38 1
    43   23   39 1
    44   24   40 1
    45   24   41 1
@<TRIPOS>MOLECULE
CHEMBL576062
   36    39     0     0     0
SMALL
USER_CHARGES

@<TRIPOS>ATOM
      1 C1         -1.5685    0.4432    0.2669 C.3       1 <0>        -0.1008
      2 C2         -0.3785   -0.4683    0.1122 C.ar      1 <0>        -0.1016
      3 C3         -0.1916   -1.1860   -1.0560 C.ar      1 <0>        -0.0842
      4 C4          0.9186   -2.0132   -1.1553 C.ar      1 <0>        -0.1625
      5 C5          1.8001   -2.0967   -0.0931 C.ar      1 <0>         0.0929
      6 N1          1.5996   -1.4032    1.0088 N.ar      1 <0>        -0.4307
      7 C6          0.5533   -0.5960    1.1422 C.ar      1 <0>         0.2009
      8 C7          0.3715    0.1693    2.3959 C.2       1 <0>         0.2143
      9 C8          0.3921   -0.4451    3.6471 C.2       1 <0>        -0.2021
     10 S1          0.1272    0.9639    4.7111 S.3       1 <0>         0.1394
     11 C9          0.0201    2.1466    3.5195 C.2       1 <0>         0.3275
     12 N2          0.1849    1.4797    2.3978 N.2       1 <0>        -0.5764
     13 N3         -0.1873    3.5031    3.6817 N.pl3     1 <0>        -0.7944
     14 C10         0.5803   -1.8631    3.9948 C.ar      1 <0>         0.2647
     15 C11         0.6776   -2.2349    5.3500 C.ar      1 <0>        -0.1509
     16 C12         0.8516   -3.5421    5.6835 C.ar      1 <0>        -0.0367
     17 C13         0.9300   -4.4966    4.6454 C.ar      1 <0>         0.0703
     18 C14         0.8250   -4.0588    3.3022 C.ar      1 <0>         0.0939
     19 N4          0.6494   -2.7644    3.0285 N.ar      1 <0>        -0.4361
     20 C15         0.9038   -5.0150    2.2701 C.ar      1 <0>        -0.0422
     21 C16         1.0785   -6.3251    2.6147 C.ar      1 <0>        -0.1584
     22 C17         1.1738   -6.6848    3.9568 C.ar      1 <0>         0.1282
     23 N5          1.0996   -5.7921    4.9152 N.ar      1 <0>        -0.4635
     24 H1         -1.3087    1.4424   -0.0827 H         1 <0>         0.0770
     25 H2         -2.4008    0.0573   -0.3218 H         1 <0>         0.0640
     26 H3         -1.8569    0.4892    1.3171 H         1 <0>         0.0626
     27 H4         -0.8942   -1.1047   -1.8721 H         1 <0>         0.1342
     28 H5          1.0922   -2.5866   -2.0539 H         1 <0>         0.1339
     29 H6          2.6648   -2.7395   -0.1679 H         1 <0>         0.1530
     30 H7         -0.2906    3.8750    4.5716 H         1 <0>         0.4224
     31 H8         -0.2296    4.0835    2.9056 H         1 <0>         0.4177
     32 H9          0.6145   -1.4832    6.1229 H         1 <0>         0.1411
     33 H10         0.9283   -3.8431    6.7179 H         1 <0>         0.1507
     34 H11         0.8277   -4.7198    1.2340 H         1 <0>         0.1429
     35 H12         1.1424   -7.0818    1.8468 H         1 <0>         0.1445
     36 H13         1.3119   -7.7244    4.2149 H         1 <0>         0.1643
@<TRIPOS>BOND
     1    1    2 1
     2    1   24 1
     3    1   25 1
     4    1   26 1
     5    2    7 ar
     6    2    3 ar
     7    3    4 ar
     8    3   27 1
     9    4    5 ar
    10    4   28 1
    11    5    6 ar
    12    5   29 1
    13    6    7 ar
    14    7    8 1
    15    8   12 1
    16    8    9 2
    17    9   10 1
    18    9   14 1
    19   10   11 1
    20   11   12 2
    21   11   13 1
    22   13   30 1
    23   13   31 1
    24   14   19 ar
    25   14   15 ar
    26   15   16 ar
    27   15   32 1
    28   16   17 ar
    29   16   33 1
    30   17   23 ar
    31   17   18 ar
    32   18   19 ar
    33   18   20 ar
    34   20   21 ar
    35   20   34 1
    36   21   22 ar
    37   21   35 1
    38   22   23 ar
    39   22   36 1
@<TRIPOS>MOLECULE
CHEMBL261454
   33    36     0     0     0
SMALL
USER_CHARGES

@<TRIPOS>ATOM
      1 C1         -0.0164    1.3585    0.0095 C.ar      1 <0>        -0.1340
      2 C2          1.1699    2.0882    0.0021 C.ar      1 <0>        -0.0948
      3 C3          2.3787    1.4625   -0.0128 C.ar      1 <0>        -0.1054
      4 C4          2.4370    0.0577   -0.0208 C.ar      1 <0>         0.1307
      5 C5          1.2290   -0.6802   -0.0132 C.ar      1 <0>        -0.0659
      6 C6          0.0021   -0.0041    0.0020 C.ar      1 <0>        -0.0425
      7 C7          1.2912   -2.0970   -0.0213 C.ar      1 <0>         0.0689
      8 C8          2.5477   -2.6907   -0.0364 C.ar      1 <0>        -0.1771
      9 C9          3.6839   -1.8927   -0.0430 C.ar      1 <0>         0.1302
     10 N1          3.6110   -0.5824   -0.0349 N.ar      1 <0>        -0.4801
     11 C10         0.0591   -2.9160   -0.0134 C.2       1 <0>        -0.1846
     12 C11        -0.3572   -3.7539    0.9818 C.2       1 <0>         0.0835
     13 N2         -1.5227   -4.3084    0.6008 N.pl3     1 <0>        -0.4658
     14 H1         -2.0377   -4.9435    1.1227 H         1 <0>         0.4465
     15 N3         -1.8768   -3.8272   -0.6635 N.2       1 <0>        -0.2642
     16 C12        -0.9543   -2.9811   -1.0681 C.2       1 <0>         0.1395
     17 C13        -0.9414   -2.2374   -2.3501 C.ar      1 <0>         0.1900
     18 C14        -1.6373   -2.7406   -3.4483 C.ar      1 <0>        -0.1393
     19 C15        -1.6159   -2.0350   -4.6384 C.ar      1 <0>        -0.0755
     20 C16        -0.8987   -0.8478   -4.6922 C.ar      1 <0>        -0.1621
     21 C17        -0.2313   -0.4070   -3.5647 C.ar      1 <0>         0.1057
     22 N4         -0.2722   -1.0953   -2.4418 N.ar      1 <0>        -0.4511
     23 H2         -0.9626    1.8790    0.0259 H         1 <0>         0.1199
     24 H3          1.1302    3.1675    0.0079 H         1 <0>         0.1253
     25 H4          3.2895    2.0428   -0.0187 H         1 <0>         0.1314
     26 H5         -0.9240   -0.5597    0.0082 H         1 <0>         0.1176
     27 H6          2.6399   -3.7668   -0.0426 H         1 <0>         0.1333
     28 H7          4.6556   -2.3638   -0.0543 H         1 <0>         0.1567
     29 H8          0.1592   -3.9393    1.9120 H         1 <0>         0.1876
     30 H9         -2.1850   -3.6682   -3.3713 H         1 <0>         0.1392
     31 H10        -2.1452   -2.4001   -5.5062 H         1 <0>         0.1394
     32 H11        -0.8622   -0.2740   -5.6064 H         1 <0>         0.1384
     33 H12         0.3278    0.5162   -3.6035 H         1 <0>         0.1588
@<TRIPOS>BOND
     1    1    6 ar
     2    1    2 ar
     3    1   23 1
     4    2    3 ar
     5    2   24 1
     6    3    4 ar
     7    3   25 1
     8    4   10 ar
     9    4    5 ar
    10    5    6 ar
    11    5    7 ar
    12    6   26 1
    13    7    8 ar
    14    7   11 1
    15    8    9 ar
    16    8   27 1
    17    9   10 ar
    18    9   28 1
    19   11   16 1
    20   11   12 2
    21   12   13 1
    22   12   29 1
    23   13   14 1
    24   13   15 1
    25   15   16 2
    26   16   17 1
    27   17   22 ar
    28   17   18 ar
    29   18   19 ar
    30   18   30 1
    31   19   20 ar
    32   19   31 1
    33   20   21 ar
    34   20   32 1
    35   21   22 ar
    36   21   33 1
@<TRIPOS>MOLECULE
CHEMBL261454__1
   33    36     0     0     0
SMALL
USER_CHARGES

@<TRIPOS>ATOM
      1 C1         -0.0164    1.3586    0.0095 C.ar      1 <0>        -0.1354
      2 C2          1.1699    2.0883    0.0021 C.ar      1 <0>        -0.0955
      3 C3          2.3786    1.4625   -0.0128 C.ar      1 <0>        -0.1049
      4 C4          2.4369    0.0577   -0.0208 C.ar      1 <0>         0.1303
      5 C5          1.2288   -0.6801   -0.0132 C.ar      1 <0>        -0.0631
      6 C6          0.0021   -0.0041    0.0020 C.ar      1 <0>        -0.0416
      7 C7          1.2910   -2.0973   -0.0213 C.ar      1 <0>         0.0647
      8 C8          2.5481   -2.6911   -0.0364 C.ar      1 <0>        -0.1735
      9 C9          3.6840   -1.8927   -0.0430 C.ar      1 <0>         0.1301
     10 N1          3.6109   -0.5824   -0.0349 N.ar      1 <0>        -0.4797
     11 C10         0.0597   -2.9159   -0.0135 C.2       1 <0>        -0.1662
     12 C11        -0.3608   -3.7821    1.0133 C.2       1 <0>         0.0717
     13 N2         -1.4931   -4.3274    0.6583 N.2       1 <0>        -0.2696
     14 H1         -2.6573   -4.0913   -1.0971 H         1 <0>         0.4432
     15 N3         -1.8588   -3.8462   -0.6039 N.pl3     1 <0>        -0.4603
     16 C12        -0.9024   -2.9692   -1.0167 C.2       1 <0>         0.1436
     17 C13        -0.8877   -2.2195   -2.2890 C.ar      1 <0>         0.1722
     18 C14        -1.5846   -2.7145   -3.3929 C.ar      1 <0>        -0.1575
     19 C15        -1.5614   -2.0002   -4.5773 C.ar      1 <0>        -0.0687
     20 C16        -0.8425   -0.8134   -4.6220 C.ar      1 <0>        -0.1603
     21 C17        -0.1746   -0.3808   -3.4909 C.ar      1 <0>         0.1117
     22 N4         -0.2160   -1.0762   -2.3730 N.ar      1 <0>        -0.4450
     23 H2         -0.9626    1.8791    0.0259 H         1 <0>         0.1192
     24 H3          1.1302    3.1675    0.0079 H         1 <0>         0.1251
     25 H4          3.2895    2.0428   -0.0187 H         1 <0>         0.1314
     26 H5         -0.9240   -0.5597    0.0078 H         1 <0>         0.1159
     27 H6          2.6405   -3.7671   -0.0426 H         1 <0>         0.1347
     28 H7          4.6559   -2.3636   -0.0543 H         1 <0>         0.1572
     29 H8          0.1649   -3.9653    1.9387 H         1 <0>         0.1936
     30 H9         -2.1337   -3.6419   -3.3232 H         1 <0>         0.1328
     31 H10        -2.0906   -2.3581   -5.4481 H         1 <0>         0.1413
     32 H11        -0.8049   -0.2332   -5.5321 H         1 <0>         0.1410
     33 H12         0.3855    0.5420   -3.5235 H         1 <0>         0.1616
@<TRIPOS>BOND
     1    1    6 ar
     2    1    2 ar
     3    1   23 1
     4    2    3 ar
     5    2   24 1
     6    3    4 ar
     7    3   25 1
     8    4   10 ar
     9    4    5 ar
    10    5    6 ar
    11    5    7 ar
    12    6   26 1
    13    7    8 ar
    14    7   11 1
    15    8    9 ar
    16    8   27 1
    17    9   10 ar
    18    9   28 1
    19   11   12 1
    20   11   16 2
    21   12   13 2
    22   12   29 1
    23   13   15 1
    24   14   15 1
    25   15   16 1
    26   16   17 1
    27   17   22 ar
    28   17   18 ar
    29   18   19 ar
    30   18   30 1
    31   19   20 ar
    32   19   31 1
    33   20   21 ar
    34   20   32 1
    35   21   22 ar
    36   21   33 1
@<TRIPOS>MOLECULE
CHEMBL202994
   57    61     0     0     0
SMALL
USER_CHARGES

@<TRIPOS>ATOM
      1 C1         -0.0167    1.3795    0.0096 C.ar      1 <0>        -0.0741
      2 C2          1.1938    2.0587    0.0017 C.ar      1 <0>        -0.1604
      3 C3          2.3745    1.3401   -0.0134 C.ar      1 <0>         0.1025
      4 N1          2.3646    0.0224   -0.0208 N.ar      1 <0>        -0.4585
      5 C4          1.2295   -0.6646   -0.0137 C.ar      1 <0>         0.1873
      6 C5          0.0021   -0.0041    0.0020 C.ar      1 <0>        -0.1375
      7 C6          1.2668   -2.1464   -0.0230 C.2       1 <0>         0.1425
      8 C7          2.3237   -2.9527   -0.5175 C.2       1 <0>        -0.1856
      9 C8          1.9628   -4.2550   -0.3389 C.2       1 <0>         0.0823
     10 N2          0.7442   -4.2707    0.2372 N.pl3     1 <0>        -0.4590
     11 H1          0.2420   -5.0643    0.4800 H         1 <0>         0.4488
     12 N3          0.3284   -2.9481    0.4310 N.2       1 <0>        -0.2662
     13 C9          3.5892   -2.4678   -1.1191 C.ar      1 <0>         0.0673
     14 C10         3.5787   -1.5044   -2.1343 C.ar      1 <0>        -0.1330
     15 C11         4.7758   -1.0773   -2.6702 C.ar      1 <0>         0.1092
     16 N4          5.9242   -1.5623   -2.2405 N.ar      1 <0>        -0.4832
     17 C12         5.9841   -2.4770   -1.2802 C.ar      1 <0>         0.1593
     18 C13         4.8221   -2.9560   -0.6836 C.ar      1 <0>        -0.1544
     19 C14         7.3027   -2.9890   -0.8350 C.ar      1 <0>        -0.0577
     20 C15         7.3747   -3.9537    0.1689 C.ar      1 <0>        -0.0636
     21 C16         8.6022   -4.4278    0.5807 C.ar      1 <0>        -0.1432
     22 C17         9.7659   -3.9450   -0.0031 C.ar      1 <0>         0.1152
     23 C18         9.6974   -2.9841   -1.0032 C.ar      1 <0>        -0.2050
     24 C19         8.4726   -2.5107   -1.4235 C.ar      1 <0>        -0.0409
     25 O1         10.9739   -4.4133    0.4054 O.3       1 <0>        -0.3253
     26 C20        12.1302   -3.8734   -0.2376 C.3       1 <0>         0.0274
     27 C21        13.3878   -4.5165    0.3504 C.3       1 <0>         0.0011
     28 N5         13.3995   -5.9503    0.0312 N.4       1 <0>        -0.3912
     29 C22        12.2803   -6.6235    0.7240 C.3       1 <0>        -0.0015
     30 C23        12.8397   -8.0117    1.1233 C.3       1 <0>        -0.1458
     31 C24        14.3045   -7.6634    1.4975 C.3       1 <0>        -0.1421
     32 C25        14.6653   -6.5507    0.4909 C.3       1 <0>        -0.0134
     33 H2         -0.9522    1.9188    0.0259 H         1 <0>         0.1411
     34 H3          1.2130    3.1385    0.0070 H         1 <0>         0.1399
     35 H4          3.3180    1.8657   -0.0196 H         1 <0>         0.1598
     36 H5         -0.9212   -0.5643    0.0082 H         1 <0>         0.1406
     37 H6          2.5489   -5.1204   -0.6108 H         1 <0>         0.1860
     38 H7          2.6440   -1.1004   -2.4943 H         1 <0>         0.1271
     39 H8          4.7724   -0.3343   -3.4540 H         1 <0>         0.1572
     40 H9          4.8731   -3.6967    0.1007 H         1 <0>         0.1321
     41 H10         6.4700   -4.3291    0.6238 H         1 <0>         0.1382
     42 H11         8.6586   -5.1751    1.3583 H         1 <0>         0.1347
     43 H12        10.6043   -2.6102   -1.4551 H         1 <0>         0.1294
     44 H13         8.4197   -1.7666   -2.2045 H         1 <0>         0.1434
     45 H14        12.0818   -4.0811   -1.3066 H         1 <0>         0.0864
     46 H15        12.1647   -2.7957   -0.0781 H         1 <0>         0.1097
     47 H16        14.2717   -4.0421   -0.0759 H         1 <0>         0.1489
     48 H17        13.3911   -4.3851    1.4324 H         1 <0>         0.1402
     49 H18        11.9905   -6.0614    1.6118 H         1 <0>         0.1377
     50 H19        11.4302   -6.7362    0.0510 H         1 <0>         0.1345
     51 H20        12.3033   -8.4168    1.9813 H         1 <0>         0.1159
     52 H21        12.8057   -8.7033    0.2815 H         1 <0>         0.0967
     53 H22        14.3629   -7.2914    2.5204 H         1 <0>         0.0984
     54 H23        14.9528   -8.5293    1.3635 H         1 <0>         0.1120
     55 H24        15.2027   -6.9770   -0.3562 H         1 <0>         0.1323
     56 H25        15.2789   -5.7937    0.9791 H         1 <0>         0.1316
     57 H26        13.3054   -6.0779   -0.9653 H         1 <0>         0.4246
@<TRIPOS>BOND
     1    1    6 ar
     2    1    2 ar
     3    1   33 1
     4    2    3 ar
     5    2   34 1
     6    3    4 ar
     7    3   35 1
     8    4    5 ar
     9    5    6 ar
    10    5    7 1
    11    6   36 1
    12    7   12 2
    13    7    8 1
    14    8    9 2
    15    8   13 1
    16    9   10 1
    17    9   37 1
    18   10   11 1
    19   10   12 1
    20   13   18 ar
    21   13   14 ar
    22   14   15 ar
    23   14   38 1
    24   15   16 ar
    25   15   39 1
    26   16   17 ar
    27   17   18 ar
    28   17   19 1
    29   18   40 1
    30   19   24 ar
    31   19   20 ar
    32   20   21 ar
    33   20   41 1
    34   21   22 ar
    35   21   42 1
    36   22   23 ar
    37   22   25 1
    38   23   24 ar
    39   23   43 1
    40   24   44 1
    41   25   26 1
    42   26   27 1
    43   26   45 1
    44   26   46 1
    45   27   28 1
    46   27   47 1
    47   27   48 1
    48   28   32 1
    49   28   29 1
    50   28   57 1
    51   29   30 1
    52   29   49 1
    53   29   50 1
    54   30   31 1
    55   30   51 1
    56   30   52 1
    57   31   32 1
    58   31   53 1
    59   31   54 1
    60   32   55 1
    61   32   56 1
@<TRIPOS>MOLECULE
CHEMBL202994__1
   57    61     0     0     0
SMALL
USER_CHARGES

@<TRIPOS>ATOM
      1 C1         -0.0167    1.3791    0.0096 C.ar      1 <0>        -0.0672
      2 C2          1.1939    2.0588    0.0017 C.ar      1 <0>        -0.1579
      3 C3          2.3757    1.3409   -0.0134 C.ar      1 <0>         0.1089
      4 N1          2.3675    0.0237   -0.0209 N.ar      1 <0>        -0.4521
      5 C4          1.2315   -0.6652   -0.0137 C.ar      1 <0>         0.1704
      6 C5          0.0021   -0.0041    0.0020 C.ar      1 <0>        -0.1556
      7 C6          1.2696   -2.1418   -0.0230 C.2       1 <0>         0.1510
      8 C7          2.2978   -2.9387   -0.5099 C.2       1 <0>        -0.1730
      9 C8          1.9149   -4.2780   -0.3177 C.2       1 <0>         0.0691
     10 N2          0.7367   -4.2963    0.2464 N.2       1 <0>        -0.2681
     11 H1         -0.5339   -2.7121    0.8547 H         1 <0>         0.4447
     12 N3          0.3057   -2.9803    0.4497 N.pl3     1 <0>        -0.4585
     13 C9          3.5631   -2.4655   -1.1193 C.ar      1 <0>         0.0670
     14 C10         3.5545   -1.5057   -2.1384 C.ar      1 <0>        -0.1366
     15 C11         4.7521   -1.0894   -2.6817 C.ar      1 <0>         0.1090
     16 N4          5.8991   -1.5814   -2.2561 N.ar      1 <0>        -0.4831
     17 C12         5.9572   -2.4928   -1.2925 C.ar      1 <0>         0.1604
     18 C13         4.7950   -2.9610   -0.6880 C.ar      1 <0>        -0.1510
     19 C14         7.2744   -3.0124   -0.8520 C.ar      1 <0>        -0.0584
     20 C15         7.3447   -3.9739    0.1551 C.ar      1 <0>        -0.0628
     21 C16         8.5708   -4.4554    0.5622 C.ar      1 <0>        -0.1429
     22 C17         9.7350   -3.9834   -0.0295 C.ar      1 <0>         0.1155
     23 C18         9.6682   -3.0259   -1.0329 C.ar      1 <0>        -0.2055
     24 C19         8.4447   -2.5447   -1.4482 C.ar      1 <0>        -0.0409
     25 O1         10.9416   -4.4591    0.3743 O.3       1 <0>        -0.3251
     26 C20        12.0984   -3.9302   -0.2769 C.3       1 <0>         0.0274
     27 C21        13.3544   -4.5804    0.3069 C.3       1 <0>         0.0011
     28 N5         13.3538   -6.0154   -0.0070 N.4       1 <0>        -0.3912
     29 C22        12.2334   -6.6777    0.6943 C.3       1 <0>        -0.0015
     30 C23        12.7847   -8.0685    1.0960 C.3       1 <0>        -0.1457
     31 C24        14.2540   -7.7296    1.4610 C.3       1 <0>        -0.1421
     32 C25        14.6176   -6.6234    0.4483 C.3       1 <0>        -0.0134
     33 H2         -0.9523    1.9183    0.0259 H         1 <0>         0.1435
     34 H3          1.2124    3.1386    0.0070 H         1 <0>         0.1429
     35 H4          3.3185    1.8676   -0.0196 H         1 <0>         0.1631
     36 H5         -0.9212   -0.5644    0.0082 H         1 <0>         0.1345
     37 H6          2.4970   -5.1458   -0.5906 H         1 <0>         0.1923
     38 H7          2.6211   -1.0963   -2.4954 H         1 <0>         0.1255
     39 H8          4.7503   -0.3492   -3.4681 H         1 <0>         0.1567
     40 H9          4.8447   -3.6988    0.0992 H         1 <0>         0.1342
     41 H10         6.4397   -4.3408    0.6162 H         1 <0>         0.1392
     42 H11         8.6259   -5.2002    1.3424 H         1 <0>         0.1351
     43 H12        10.5753   -2.6604   -1.4910 H         1 <0>         0.1292
     44 H13         8.3931   -1.8029   -2.2315 H         1 <0>         0.1431
     45 H14        12.0428   -4.1415   -1.3448 H         1 <0>         0.0864
     46 H15        12.1417   -2.8522   -0.1217 H         1 <0>         0.1095
     47 H16        14.2395   -4.1141   -0.1259 H         1 <0>         0.1487
     48 H17        13.3644   -4.4449    1.3884 H         1 <0>         0.1402
     49 H18        11.9525   -6.1102    1.5815 H         1 <0>         0.1378
     50 H19        11.3790   -6.7867    0.0263 H         1 <0>         0.1347
     51 H20        12.2499   -8.4663    1.9584 H         1 <0>         0.1160
     52 H21        12.7411   -8.7629    0.2570 H         1 <0>         0.0967
     53 H22        14.3206   -7.3542    2.4822 H         1 <0>         0.0983
     54 H23        14.8952   -8.6007    1.3269 H         1 <0>         0.1120
     55 H24        15.1473   -7.0568   -0.4000 H         1 <0>         0.1322
     56 H25        15.2394   -5.8691    0.9304 H         1 <0>         0.1315
     57 H26        13.2535   -6.1461   -1.0024 H         1 <0>         0.4247
@<TRIPOS>BOND
     1    1    6 ar
     2    1    2 ar
     3    1   33 1
     4    2    3 ar
     5    2   34 1
     6    3    4 ar
     7    3   35 1
     8    4    5 ar
     9    5    6 ar
    10    5    7 1
    11    6   36 1
    12    7    8 2
    13    7   12 1
    14    8    9 1
    15    8   13 1
    16    9   10 2
    17    9   37 1
    18   10   12 1
    19   11   12 1
    20   13   18 ar
    21   13   14 ar
    22   14   15 ar
    23   14   38 1
    24   15   16 ar
    25   15   39 1
    26   16   17 ar
    27   17   18 ar
    28   17   19 1
    29   18   40 1
    30   19   24 ar
    31   19   20 ar
    32   20   21 ar
    33   20   41 1
    34   21   22 ar
    35   21   42 1
    36   22   23 ar
    37   22   25 1
    38   23   24 ar
    39   23   43 1
    40   24   44 1
    41   25   26 1
    42   26   27 1
    43   26   45 1
    44   26   46 1
    45   27   28 1
    46   27   47 1
    47   27   48 1
    48   28   32 1
    49   28   29 1
    50   28   57 1
    51   29   30 1
    52   29   49 1
    53   29   50 1
    54   30   31 1
    55   30   51 1
    56   30   52 1
    57   31   32 1
    58   31   53 1
    59   31   54 1
    60   32   55 1
    61   32   56 1
@<TRIPOS>MOLECULE
CHEMBL424676
   53    56     0     0     0
SMALL
USER_CHARGES

@<TRIPOS>ATOM
      1 C1         -0.0178    1.4648    0.0101 C.3       1 <0>        -0.0546
      2 N1          0.0021   -0.0041    0.0020 N.4       1 <0>        -0.3888
      3 C2         -1.3761   -0.5125    0.0124 C.3       1 <0>        -0.0474
      4 C3          0.6897   -0.4778   -1.2066 C.3       1 <0>        -0.0016
      5 C4          2.1588   -0.0534   -1.1571 C.3       1 <0>         0.0237
      6 O1          2.8089   -0.7134   -0.0690 O.3       1 <0>        -0.3285
      7 C5          4.1274   -0.4444    0.1163 C.ar      1 <0>         0.1166
      8 C6          4.7794    0.4423   -0.7304 C.ar      1 <0>        -0.2057
      9 C7          6.1177    0.7169   -0.5451 C.ar      1 <0>        -0.0409
     10 C8          6.8164    0.1037    0.4938 C.ar      1 <0>        -0.0573
     11 C9          6.1590   -0.7858    1.3426 C.ar      1 <0>        -0.0631
     12 C10         4.8192   -1.0524    1.1554 C.ar      1 <0>        -0.1422
     13 C11         8.2561    0.3966    0.6955 C.ar      1 <0>         0.1594
     14 C12         8.9467   -0.2243    1.7314 C.ar      1 <0>        -0.1544
     15 C13        10.3012    0.0629    1.9068 C.ar      1 <0>         0.0676
     16 C14        10.9066    0.9678    1.0273 C.ar      1 <0>        -0.1334
     17 C15        10.1515    1.5408    0.0252 C.ar      1 <0>         0.1092
     18 N2          8.8745    1.2445   -0.1175 N.ar      1 <0>        -0.4831
     19 C16        11.0787   -0.5739    2.9970 C.2       1 <0>        -0.1858
     20 C17        10.7200   -0.6407    4.3105 C.2       1 <0>         0.0824
     21 N3         11.6935   -1.2982    4.9717 N.pl3     1 <0>        -0.4589
     22 H1         11.7023   -1.4920    5.9221 H         1 <0>         0.4488
     23 N4         12.6894   -1.6546    4.0547 N.2       1 <0>        -0.2663
     24 C18        12.3288   -1.2303    2.8633 C.2       1 <0>         0.1426
     25 C19        13.0939   -1.4041    1.6056 C.ar      1 <0>         0.1874
     26 C20        14.4754   -1.5829    1.6560 C.ar      1 <0>        -0.1375
     27 C21        15.1759   -1.7442    0.4737 C.ar      1 <0>        -0.0741
     28 C22        14.4716   -1.7215   -0.7222 C.ar      1 <0>        -0.1605
     29 C23        13.1015   -1.5399   -0.6990 C.ar      1 <0>         0.1025
     30 N5         12.4576   -1.3936    0.4414 N.ar      1 <0>        -0.4586
     31 H2          1.0047    1.8421    0.0024 H         1 <0>         0.1220
     32 H3         -0.5450    1.8259   -0.8730 H         1 <0>         0.1246
     33 H4         -0.5280    1.8163    0.9069 H         1 <0>         0.1271
     34 H5         -1.9033   -0.1515   -0.8706 H         1 <0>         0.1230
     35 H6         -1.3613   -1.6024    0.0065 H         1 <0>         0.1246
     36 H7         -1.8863   -0.1610    0.9092 H         1 <0>         0.1256
     37 H8          0.6270   -1.5648   -1.2578 H         1 <0>         0.1425
     38 H9          0.2158   -0.0447   -2.0875 H         1 <0>         0.1494
     39 H10         2.6477   -0.3267   -2.0922 H         1 <0>         0.1098
     40 H11         2.2206    1.0258   -1.0166 H         1 <0>         0.0877
     41 H12         4.2376    0.9170   -1.5351 H         1 <0>         0.1294
     42 H13         6.6245    1.4061   -1.2044 H         1 <0>         0.1439
     43 H14         6.6977   -1.2626    2.1481 H         1 <0>         0.1389
     44 H15         4.3084   -1.7380    1.8153 H         1 <0>         0.1357
     45 H16         8.4428   -0.9168    2.3892 H         1 <0>         0.1323
     46 H17        11.9527    1.2148    1.1322 H         1 <0>         0.1273
     47 H18        10.6143    2.2399   -0.6556 H         1 <0>         0.1573
     48 H19         9.8168   -0.2378    4.7444 H         1 <0>         0.1860
     49 H20        14.9918   -1.5950    2.6045 H         1 <0>         0.1407
     50 H21        16.2468   -1.8843    0.4811 H         1 <0>         0.1411
     51 H22        14.9893   -1.8443   -1.6621 H         1 <0>         0.1399
     52 H23        12.5508   -1.5214   -1.6278 H         1 <0>         0.1598
     53 H24         0.4901   -0.3383    0.8195 H         1 <0>         0.4339
@<TRIPOS>BOND
     1    1    2 1
     2    1   31 1
     3    1   32 1
     4    1   33 1
     5    2    3 1
     6    2    4 1
     7    2   53 1
     8    3   34 1
     9    3   35 1
    10    3   36 1
    11    4    5 1
    12    4   37 1
    13    4   38 1
    14    5    6 1
    15    5   39 1
    16    5   40 1
    17    6    7 1
    18    7   12 ar
    19    7    8 ar
    20    8    9 ar
    21    8   41 1
    22    9   10 ar
    23    9   42 1
    24   10   11 ar
    25   10   13 1
    26   11   12 ar
    27   11   43 1
    28   12   44 1
    29   13   18 ar
    30   13   14 ar
    31   14   15 ar
    32   14   45 1
    33   15   16 ar
    34   15   19 1
    35   16   17 ar
    36   16   46 1
    37   17   18 ar
    38   17   47 1
    39   19   24 1
    40   19   20 2
    41   20   21 1
    42   20   48 1
    43   21   22 1
    44   21   23 1
    45   23   24 2
    46   24   25 1
    47   25   30 ar
    48   25   26 ar
    49   26   27 ar
    50   26   49 1
    51   27   28 ar
    52   27   50 1
    53   28   29 ar
    54   28   51 1
    55   29   30 ar
    56   29   52 1
@<TRIPOS>MOLECULE
CHEMBL424676__1
   53    56     0     0     0
SMALL
USER_CHARGES

@<TRIPOS>ATOM
      1 C1         -0.0178    1.4648    0.0101 C.3       1 <0>        -0.0546
      2 N1          0.0021   -0.0041    0.0020 N.4       1 <0>        -0.3888
      3 C2         -1.3761   -0.5125    0.0124 C.3       1 <0>        -0.0474
      4 C3          0.6897   -0.4778   -1.2066 C.3       1 <0>        -0.0016
      5 C4          2.1588   -0.0534   -1.1571 C.3       1 <0>         0.0237
      6 O1          2.8089   -0.7134   -0.0690 O.3       1 <0>        -0.3284
      7 C5          4.1274   -0.4444    0.1163 C.ar      1 <0>         0.1168
      8 C6          4.7794    0.4423   -0.7304 C.ar      1 <0>        -0.2061
      9 C7          6.1176    0.7173   -0.5449 C.ar      1 <0>        -0.0409
     10 C8          6.8163    0.1040    0.4941 C.ar      1 <0>        -0.0580
     11 C9          6.1590   -0.7858    1.3425 C.ar      1 <0>        -0.0624
     12 C10         4.8192   -1.0524    1.1554 C.ar      1 <0>        -0.1419
     13 C11         8.2558    0.3973    0.6961 C.ar      1 <0>         0.1604
     14 C12         8.9464   -0.2236    1.7319 C.ar      1 <0>        -0.1509
     15 C13        10.3012    0.0641    1.9077 C.ar      1 <0>         0.0673
     16 C14        10.9064    0.9696    1.0280 C.ar      1 <0>        -0.1367
     17 C15        10.1510    1.5424    0.0261 C.ar      1 <0>         0.1090
     18 N2          8.8741    1.2455   -0.1167 N.ar      1 <0>        -0.4831
     19 C16        11.0784   -0.5722    2.9973 C.2       1 <0>        -0.1730
     20 C17        10.7131   -0.6378    4.3535 C.2       1 <0>         0.0691
     21 N3         11.6483   -1.2757    5.0054 N.2       1 <0>        -0.2680
     22 H1         13.4654   -2.1368    4.3340 H         1 <0>         0.4447
     23 N4         12.6563   -1.6510    4.1098 N.pl3     1 <0>        -0.4586
     24 C18        12.3003   -1.2200    2.8675 C.2       1 <0>         0.1509
     25 C19        13.0692   -1.4040    1.6198 C.ar      1 <0>         0.1707
     26 C20        14.4515   -1.5895    1.6789 C.ar      1 <0>        -0.1558
     27 C21        15.1572   -1.7605    0.5015 C.ar      1 <0>        -0.0671
     28 C22        14.4595   -1.7408   -0.6986 C.ar      1 <0>        -0.1580
     29 C23        13.0896   -1.5525   -0.6848 C.ar      1 <0>         0.1089
     30 N5         12.4392   -1.3973    0.4502 N.ar      1 <0>        -0.4522
     31 H2          1.0047    1.8421    0.0024 H         1 <0>         0.1220
     32 H3         -0.5450    1.8259   -0.8730 H         1 <0>         0.1245
     33 H4         -0.5280    1.8163    0.9069 H         1 <0>         0.1272
     34 H5         -1.9033   -0.1515   -0.8706 H         1 <0>         0.1229
     35 H6         -1.3613   -1.6024    0.0065 H         1 <0>         0.1246
     36 H7         -1.8863   -0.1610    0.9092 H         1 <0>         0.1257
     37 H8          0.6270   -1.5648   -1.2578 H         1 <0>         0.1425
     38 H9          0.2158   -0.0447   -2.0875 H         1 <0>         0.1492
     39 H10         2.6477   -0.3267   -2.0922 H         1 <0>         0.1096
     40 H11         2.2206    1.0258   -1.0166 H         1 <0>         0.0877
     41 H12         4.2377    0.9168   -1.5353 H         1 <0>         0.1293
     42 H13         6.6243    1.4067   -1.2039 H         1 <0>         0.1436
     43 H14         6.6976   -1.2623    2.1483 H         1 <0>         0.1399
     44 H15         4.3084   -1.7383    1.8151 H         1 <0>         0.1361
     45 H16         8.4426   -0.9164    2.3896 H         1 <0>         0.1344
     46 H17        11.9524    1.2171    1.1329 H         1 <0>         0.1257
     47 H18        10.6135    2.2417   -0.6546 H         1 <0>         0.1568
     48 H19         9.8107   -0.2293    4.7840 H         1 <0>         0.1923
     49 H20        14.9628   -1.5989    2.6302 H         1 <0>         0.1345
     50 H21        16.2273   -1.9057    0.5155 H         1 <0>         0.1435
     51 H22        14.9820   -1.8712   -1.6348 H         1 <0>         0.1429
     52 H23        12.5448   -1.5369   -1.6172 H         1 <0>         0.1631
     53 H24         0.4901   -0.3383    0.8195 H         1 <0>         0.4340
@<TRIPOS>BOND
     1    1    2 1
     2    1   31 1
     3    1   32 1
     4    1   33 1
     5    2    3 1
     6    2    4 1
     7    2   53 1
     8    3   34 1
     9    3   35 1
    10    3   36 1
    11    4    5 1
    12    4   37 1
    13    4   38 1
    14    5    6 1
    15    5   39 1
    16    5   40 1
    17    6    7 1
    18    7   12 ar
    19    7    8 ar
    20    8    9 ar
    21    8   41 1
    22    9   10 ar
    23    9   42 1
    24   10   11 ar
    25   10   13 1
    26   11   12 ar
    27   11   43 1
    28   12   44 1
    29   13   18 ar
    30   13   14 ar
    31   14   15 ar
    32   14   45 1
    33   15   16 ar
    34   15   19 1
    35   16   17 ar
    36   16   46 1
    37   17   18 ar
    38   17   47 1
    39   19   20 1
    40   19   24 2
    41   20   21 2
    42   20   48 1
    43   21   23 1
    44   22   23 1
    45   23   24 1
    46   24   25 1
    47   25   30 ar
    48   25   26 ar
    49   26   27 ar
    50   26   49 1
    51   27   28 ar
    52   27   50 1
    53   28   29 ar
    54   28   51 1
    55   29   30 ar
    56   29   52 1
@<TRIPOS>MOLECULE
CHEMBL6250
   43    47     0     0     0
SMALL
USER_CHARGES

@<TRIPOS>ATOM
      1 C1         -0.0167    1.3784    0.0096 C.ar      1 <0>        -0.0669
      2 C2          1.1942    2.0587    0.0017 C.ar      1 <0>        -0.1772
      3 C3          2.3763    1.3417   -0.0134 C.ar      1 <0>         0.1100
      4 N1          2.3692    0.0244   -0.0209 N.ar      1 <0>        -0.4587
      5 C4          1.2328   -0.6657   -0.0137 C.ar      1 <0>         0.2059
      6 C5          0.0021   -0.0041    0.0020 C.ar      1 <0>        -0.1697
      7 C6          1.2714   -2.1399   -0.0225 C.2       1 <0>         0.0112
      8 C7          2.2971   -2.9417   -0.5014 C.2       1 <0>         0.1035
      9 N2          1.9345   -4.2192   -0.3212 N.2       1 <0>        -0.4676
     10 C8          0.7467   -4.2649    0.2401 C.2       1 <0>         0.3025
     11 N3          0.3003   -2.9924    0.4478 N.pl3     1 <0>        -0.5523
     12 H1         -0.5447   -2.7370    0.8499 H         1 <0>         0.4233
     13 C9          0.0140   -5.4977    0.5942 C.ar      1 <0>        -0.0496
     14 C10        -1.2504   -5.4138    1.1838 C.ar      1 <0>        -0.1197
     15 C11        -1.9311   -6.5575    1.5122 C.ar      1 <0>        -0.0861
     16 C12        -1.3599   -7.8088    1.2571 C.ar      1 <0>        -0.1108
     17 C13        -0.0943   -7.8920    0.6670 C.ar      1 <0>        -0.0874
     18 C14         0.5830   -6.7475    0.3342 C.ar      1 <0>        -0.0832
     19 C15        -2.0910   -9.0388    1.6104 C.2       1 <0>         0.5169
     20 O1         -3.1974   -8.9657    2.1268 O.co2     1 <0>        -0.6846
     21 O2         -1.5912  -10.1327    1.3873 O.co2     1 <0>        -0.6819
     22 C16         3.5659   -2.4703   -1.1043 C.ar      1 <0>         0.0170
     23 C17         3.5824   -1.3121   -1.8810 C.ar      1 <0>        -0.0553
     24 C18         4.7644   -0.8742   -2.4418 C.ar      1 <0>        -0.1048
     25 C19         5.9388   -1.5826   -2.2359 C.ar      1 <0>         0.0320
     26 C20         5.9284   -2.7408   -1.4601 C.ar      1 <0>         0.0246
     27 C21         4.7468   -3.1806   -0.8916 C.ar      1 <0>        -0.0686
     28 O3          7.1964   -3.2446   -1.4119 O.3       1 <0>        -0.3090
     29 C22         7.9017   -2.6150   -2.4977 C.3       1 <0>         0.2135
     30 O4          7.2137   -1.3624   -2.6723 O.3       1 <0>        -0.3122
     31 H2         -0.9524    1.9175    0.0259 H         1 <0>         0.1369
     32 H3          1.2122    3.1385    0.0070 H         1 <0>         0.1364
     33 H4          3.3188    1.8691   -0.0196 H         1 <0>         0.1607
     34 H5         -0.9211   -0.5645    0.0082 H         1 <0>         0.1305
     35 H6         -1.6911   -4.4477    1.3810 H         1 <0>         0.1093
     36 H7         -2.9080   -6.4925    1.9681 H         1 <0>         0.1326
     37 H8          0.3474   -8.8576    0.4701 H         1 <0>         0.1348
     38 H9          1.5584   -6.8116   -0.1252 H         1 <0>         0.1318
     39 H10         2.6697   -0.7581   -2.0438 H         1 <0>         0.1295
     40 H11         4.7751    0.0228   -3.0432 H         1 <0>         0.1324
     41 H12         4.7380   -4.0756   -0.2872 H         1 <0>         0.1396
     42 H13         8.9445   -2.4449   -2.2296 H         1 <0>         0.1286
     43 H14         7.8315   -3.2197   -3.4018 H         1 <0>         0.0821
@<TRIPOS>BOND
     1    1    6 ar
     2    1    2 ar
     3    1   31 1
     4    2    3 ar
     5    2   32 1
     6    3    4 ar
     7    3   33 1
     8    4    5 ar
     9    5    6 ar
    10    5    7 1
    11    6   34 1
    12    7   11 1
    13    7    8 2
    14    8    9 1
    15    8   22 1
    16    9   10 2
    17   10   11 1
    18   10   13 1
    19   11   12 1
    20   13   18 ar
    21   13   14 ar
    22   14   15 ar
    23   14   35 1
    24   15   16 ar
    25   15   36 1
    26   16   17 ar
    27   16   19 1
    28   17   18 ar
    29   17   37 1
    30   18   38 1
    31   19   20 2
    32   19   21 1
    33   22   27 ar
    34   22   23 ar
    35   23   24 ar
    36   23   39 1
    37   24   25 ar
    38   24   40 1
    39   25   30 1
    40   25   26 ar
    41   26   27 ar
    42   26   28 1
    43   27   41 1
    44   28   29 1
    45   29   30 1
    46   29   42 1
    47   29   43 1
@<TRIPOS>MOLECULE
CHEMBL6250__1
   43    47     0     0     0
SMALL
USER_CHARGES

@<TRIPOS>ATOM
      1 C1         -0.0167    1.3789    0.0096 C.ar      1 <0>        -0.0764
      2 C2          1.1941    2.0586    0.0017 C.ar      1 <0>        -0.1777
      3 C3          2.3751    1.3408   -0.0134 C.ar      1 <0>         0.1008
      4 N1          2.3663    0.0230   -0.0204 N.ar      1 <0>        -0.4690
      5 C4          1.2306   -0.6650   -0.0133 C.ar      1 <0>         0.2112
      6 C5          0.0021   -0.0041    0.0020 C.ar      1 <0>        -0.1407
      7 C6          1.2684   -2.1448   -0.0221 C.2       1 <0>         0.0634
      8 C7          2.3026   -2.9343   -0.5053 C.2       1 <0>         0.0536
      9 N2          1.9172   -4.2374   -0.3145 N.pl3     1 <0>        -0.5548
     10 C8          0.6813   -4.2120    0.2691 C.2       1 <0>         0.2907
     11 N3          0.3118   -2.9633    0.4409 N.2       1 <0>        -0.4592
     12 H1          2.4264   -5.0287   -0.5501 H         1 <0>         0.4247
     13 C9         -0.1101   -5.3991    0.6501 C.ar      1 <0>        -0.0470
     14 C10         0.3997   -6.6808    0.4235 C.ar      1 <0>        -0.1196
     15 C11        -0.3315   -7.7792    0.7760 C.ar      1 <0>        -0.0860
     16 C12        -1.5913   -7.6213    1.3642 C.ar      1 <0>        -0.1116
     17 C13        -2.1010   -6.3381    1.5907 C.ar      1 <0>        -0.0877
     18 C14        -1.3663   -5.2405    1.2425 C.ar      1 <0>        -0.0849
     19 C15        -2.3809   -8.8058    1.7443 C.2       1 <0>         0.5168
     20 O1         -1.9352   -9.9275    1.5458 O.co2     1 <0>        -0.6846
     21 O2         -3.4822   -8.6674    2.2585 O.co2     1 <0>        -0.6826
     22 C16         3.5661   -2.4652   -1.1061 C.ar      1 <0>         0.0101
     23 C17         3.5532   -1.4337   -2.0484 C.ar      1 <0>        -0.0522
     24 C18         4.7350   -0.9968   -2.6079 C.ar      1 <0>        -0.0972
     25 C19         5.9397   -1.5783   -2.2391 C.ar      1 <0>         0.0356
     26 C20         5.9598   -2.6084   -1.2991 C.ar      1 <0>         0.0319
     27 C21         4.7791   -3.0473   -0.7299 C.ar      1 <0>        -0.0897
     28 O3          7.2534   -3.0036   -1.1132 O.3       1 <0>        -0.3088
     29 C22         7.9788   -2.4888   -2.2454 C.3       1 <0>         0.2133
     30 O4          7.2208   -1.3301   -2.6398 O.3       1 <0>        -0.3093
     31 H2         -0.9523    1.9181    0.0259 H         1 <0>         0.1349
     32 H3          1.2128    3.1385    0.0070 H         1 <0>         0.1324
     33 H4          3.3182    1.8671   -0.0200 H         1 <0>         0.1549
     34 H5         -0.9212   -0.5643    0.0082 H         1 <0>         0.1418
     35 H6          1.3719   -6.8026   -0.0308 H         1 <0>         0.1095
     36 H7          0.0623   -8.7694    0.6006 H         1 <0>         0.1322
     37 H8         -3.0734   -6.2155    2.0443 H         1 <0>         0.1341
     38 H9         -1.7579   -4.2500    1.4211 H         1 <0>         0.1304
     39 H10         2.6176   -0.9790   -2.3387 H         1 <0>         0.1333
     40 H11         4.7231   -0.1993   -3.3362 H         1 <0>         0.1367
     41 H12         4.7939   -3.8418    0.0014 H         1 <0>         0.1323
     42 H13         8.9901   -2.2041   -1.9549 H         1 <0>         0.1308
     43 H14         8.0029   -3.2229   -3.0507 H         1 <0>         0.0836
@<TRIPOS>BOND
     1    1    6 ar
     2    1    2 ar
     3    1   31 1
     4    2    3 ar
     5    2   32 1
     6    3    4 ar
     7    3   33 1
     8    4    5 ar
     9    5    6 ar
    10    5    7 1
    11    6   34 1
    12    7   11 1
    13    7    8 2
    14    8   22 1
    15    8    9 1
    16    9   10 1
    17    9   12 1
    18   10   13 1
    19   10   11 2
    20   13   18 ar
    21   13   14 ar
    22   14   15 ar
    23   14   35 1
    24   15   16 ar
    25   15   36 1
    26   16   17 ar
    27   16   19 1
    28   17   18 ar
    29   17   37 1
    30   18   38 1
    31   19   20 2
    32   19   21 1
    33   22   27 ar
    34   22   23 ar
    35   23   24 ar
    36   23   39 1
    37   24   25 ar
    38   24   40 1
    39   25   30 1
    40   25   26 ar
    41   26   27 ar
    42   26   28 1
    43   27   41 1
    44   28   29 1
    45   29   30 1
    46   29   42 1
    47   29   43 1
@<TRIPOS>MOLECULE
CHEMBL377711
   66    71     0     0     0
SMALL
USER_CHARGES

@<TRIPOS>ATOM
      1 C1         -0.0184    1.5028    0.0103 C.3       1 <0>        -0.0965
      2 C2          0.0021   -0.0041    0.0020 C.ar      1 <0>         0.1271
      3 C3          0.0056   -0.6794   -1.2046 C.ar      1 <0>        -0.1636
      4 C4          0.0249   -2.0670   -1.2080 C.ar      1 <0>        -0.0687
      5 C5          0.0401   -2.7306    0.0065 C.ar      1 <0>        -0.1444
      6 C6          0.0355   -1.9865    1.1848 C.ar      1 <0>         0.2035
      7 N1          0.0218   -0.6599    1.1445 N.ar      1 <0>        -0.4581
      8 C7          0.0510   -2.6820    2.4936 C.2       1 <0>         0.1332
      9 C8          0.5283   -2.1487    3.7165 C.2       1 <0>        -0.1609
     10 C9          0.3644   -3.1081    4.6734 C.2       1 <0>         0.0787
     11 N2         -0.1903   -4.1883    4.0899 N.pl3     1 <0>        -0.3786
     12 N3         -0.3805   -3.9008    2.7274 N.2       1 <0>        -0.2502
     13 C10        -0.4036   -5.2652    5.0709 C.3       1 <0>         0.1274
     14 C11         0.4843   -4.9054    6.2812 C.3       1 <0>        -0.1331
     15 C12         0.5908   -3.3694    6.1479 C.3       1 <0>        -0.0664
     16 C13         1.1018   -0.7957    3.9194 C.ar      1 <0>         0.0265
     17 C14         2.4443   -0.6551    4.2854 C.ar      1 <0>        -0.1106
     18 C15         2.9849    0.5823    4.4753 C.ar      1 <0>        -0.0661
     19 C16         2.1963    1.7248    4.3049 C.ar      1 <0>         0.0458
     20 C17         0.8462    1.5898    3.9370 C.ar      1 <0>         0.0488
     21 C18         0.3051    0.3288    3.7397 C.ar      1 <0>        -0.0602
     22 N4          0.3448    2.8738    3.8497 N.pl3     1 <0>        -0.5004
     23 C19         1.3608    3.7262    4.1543 C.2       1 <0>         0.2528
     24 N5          2.4432    3.0550    4.4204 N.2       1 <0>        -0.4839
     25 C20        -1.0263    3.2485    3.4946 C.3       1 <0>         0.1212
     26 C21        -1.9067    3.2060    4.7451 C.3       1 <0>        -0.1715
     27 C22        -3.3386    3.5973    4.3743 C.3       1 <0>        -0.0067
     28 N6         -4.1840    3.5565    5.5750 N.4       1 <0>        -0.3816
     29 C23        -4.2649    2.1763    6.0679 C.3       1 <0>        -0.0129
     30 C24        -5.0775    2.1404    7.3640 C.3       1 <0>        -0.1454
     31 C25        -6.4881    2.6700    7.0906 C.3       1 <0>        -0.1396
     32 C26        -6.3882    4.0824    6.5072 C.3       1 <0>        -0.1463
     33 C27        -5.5271    4.0463    5.2428 C.3       1 <0>        -0.0067
     34 H1          1.0042    1.8801    0.0026 H         1 <0>         0.0782
     35 H2         -0.5455    1.8639   -0.8728 H         1 <0>         0.0762
     36 H3         -0.5286    1.8543    0.9071 H         1 <0>         0.0649
     37 H4         -0.0069   -0.1322   -2.1356 H         1 <0>         0.1376
     38 H5          0.0277   -2.6167   -2.1376 H         1 <0>         0.1414
     39 H6          0.0549   -3.8100    0.0406 H         1 <0>         0.1401
     40 H7         -1.4513   -5.3009    5.3695 H         1 <0>         0.0932
     41 H8         -0.0979   -6.2235    4.6509 H         1 <0>         0.0984
     42 H9         -0.0006   -5.1831    7.2170 H         1 <0>         0.1067
     43 H10         1.4654   -5.3731    6.1981 H         1 <0>         0.0924
     44 H11         1.5815   -3.0282    6.4481 H         1 <0>         0.1000
     45 H12        -0.1792   -2.8804    6.7446 H         1 <0>         0.0955
     46 H13         3.0578   -1.5338    4.4191 H         1 <0>         0.1262
     47 H14         4.0227    0.6801    4.7578 H         1 <0>         0.1298
     48 H15        -0.7304    0.2208    3.4524 H         1 <0>         0.1160
     49 H16         1.2806    4.8030    4.1722 H         1 <0>         0.2108
     50 H17        -1.0317    4.2567    3.0805 H         1 <0>         0.1044
     51 H18        -1.4137    2.5493    2.7536 H         1 <0>         0.0983
     52 H19        -1.9013    2.1977    5.1592 H         1 <0>         0.0946
     53 H20        -1.5193    3.9052    5.4862 H         1 <0>         0.0958
     54 H21        -3.3440    4.6056    3.9602 H         1 <0>         0.1360
     55 H22        -3.7260    2.8981    3.6333 H         1 <0>         0.1326
     56 H23        -4.7498    1.5511    5.3182 H         1 <0>         0.1287
     57 H24        -3.2601    1.7996    6.2590 H         1 <0>         0.1301
     58 H25        -5.1379    1.1145    7.7274 H         1 <0>         0.1118
     59 H26        -4.5932    2.7651    8.1146 H         1 <0>         0.0877
     60 H27        -6.9912    2.0161    6.3783 H         1 <0>         0.0817
     61 H28        -7.0533    2.6996    8.0222 H         1 <0>         0.0947
     62 H29        -7.3857    4.4447    6.2581 H         1 <0>         0.1129
     63 H30        -5.9312    4.7474    7.2399 H         1 <0>         0.0879
     64 H31        -5.4541    5.0503    4.8247 H         1 <0>         0.1311
     65 H32        -5.9852    3.3813    4.5106 H         1 <0>         0.1286
     66 H33        -3.7802    4.1435    6.2895 H         1 <0>         0.4229
@<TRIPOS>BOND
     1    1    2 1
     2    1   34 1
     3    1   35 1
     4    1   36 1
     5    2    7 ar
     6    2    3 ar
     7    3    4 ar
     8    3   37 1
     9    4    5 ar
    10    4   38 1
    11    5    6 ar
    12    5   39 1
    13    6    7 ar
    14    6    8 1
    15    8   12 2
    16    8    9 1
    17    9   10 2
    18    9   16 1
    19   10   15 1
    20   10   11 1
    21   11   12 1
    22   11   13 1
    23   13   14 1
    24   13   40 1
    25   13   41 1
    26   14   15 1
    27   14   42 1
    28   14   43 1
    29   15   44 1
    30   15   45 1
    31   16   21 ar
    32   16   17 ar
    33   17   18 ar
    34   17   46 1
    35   18   19 ar
    36   18   47 1
    37   19   24 1
    38   19   20 ar
    39   20   21 ar
    40   20   22 1
    41   21   48 1
    42   22   23 1
    43   22   25 1
    44   23   24 2
    45   23   49 1
    46   25   26 1
    47   25   50 1
    48   25   51 1
    49   26   27 1
    50   26   52 1
    51   26   53 1
    52   27   28 1
    53   27   54 1
    54   27   55 1
    55   28   33 1
    56   28   29 1
    57   28   66 1
    58   29   30 1
    59   29   56 1
    60   29   57 1
    61   30   31 1
    62   30   58 1
    63   30   59 1
    64   31   32 1
    65   31   60 1
    66   31   61 1
    67   32   33 1
    68   32   62 1
    69   32   63 1
    70   33   64 1
    71   33   65 1
@<TRIPOS>MOLECULE
CHEMBL541777
   36    39     0     0     0
SMALL
USER_CHARGES

@<TRIPOS>ATOM
      1 C1         -0.0516    1.5037    0.0147 C.3       1 <0>        -0.0841
      2 C2         -0.1081   -0.0022    0.0128 C.2       1 <0>         0.0498
      3 C3         -0.3200   -0.6760   -1.1522 C.2       1 <0>        -0.1965
      4 S1         -0.2890   -2.3653   -0.5656 S.3       1 <0>         0.0855
      5 C4          0.0015   -1.9909    1.1586 C.2       1 <0>         0.1429
      6 N1          0.0519   -0.6662    1.1300 N.2       1 <0>        -0.4514
      7 C5          0.1511   -2.9105    2.3056 C.ar      1 <0>         0.4440
      8 N2          0.3569   -2.3977    3.5063 N.ar      1 <0>        -0.4902
      9 C6          0.4974   -3.1985    4.5704 C.ar      1 <0>         0.1873
     10 C7          0.7162   -2.6882    5.8583 C.ar      1 <0>        -0.0967
     11 C8          0.8523   -3.5468    6.9082 C.ar      1 <0>        -0.0725
     12 C9          0.7774   -4.9245    6.7227 C.ar      1 <0>        -0.1171
     13 C10         0.5656   -5.4543    5.4834 C.ar      1 <0>        -0.0769
     14 C11         0.4216   -4.6015    4.3843 C.ar      1 <0>        -0.1813
     15 C12         0.1993   -5.0956    3.0745 C.ar      1 <0>         0.4735
     16 N3          0.0677   -4.2229    2.0876 N.ar      1 <0>        -0.5645
     17 N4          0.1169   -6.4527    2.8347 N.pl3     1 <0>        -0.6329
     18 C13         0.0174   -6.9245    1.5272 C.ar      1 <0>         0.1956
     19 C14         0.5949   -6.2246    0.4683 C.ar      1 <0>        -0.1706
     20 C15         0.4742   -6.7255   -0.8111 C.ar      1 <0>         0.1207
     21 N5         -0.1775   -7.8505   -1.0386 N.ar      1 <0>        -0.4962
     22 C16        -0.7376   -8.5416   -0.0636 C.ar      1 <0>         0.1211
     23 C17        -0.6573   -8.1117    1.2444 C.ar      1 <0>        -0.2040
     24 H1          0.9753    1.8290   -0.1518 H         1 <0>         0.0760
     25 H2         -0.6892    1.8922   -0.7794 H         1 <0>         0.0758
     26 H3         -0.4001    1.8791    0.9769 H         1 <0>         0.0767
     27 H4         -0.4662   -0.2955   -2.1524 H         1 <0>         0.2042
     28 H5          0.7769   -1.6216    6.0172 H         1 <0>         0.1465
     29 H6          1.0211   -3.1523    7.8993 H         1 <0>         0.1393
     30 H7          0.8890   -5.5829    7.5714 H         1 <0>         0.1360
     31 H8          0.5091   -6.5248    5.3522 H         1 <0>         0.1292
     32 H9          0.1283   -7.0779    3.5763 H         1 <0>         0.4263
     33 H10         1.1289   -5.3031    0.6474 H         1 <0>         0.1476
     34 H11         0.9182   -6.1902   -1.6373 H         1 <0>         0.1592
     35 H12        -1.2623   -9.4574   -0.2925 H         1 <0>         0.1602
     36 H13        -1.1143   -8.6842    2.0381 H         1 <0>         0.1374
@<TRIPOS>BOND
     1    1    2 1
     2    1   24 1
     3    1   25 1
     4    1   26 1
     5    2    6 1
     6    2    3 2
     7    3    4 1
     8    3   27 1
     9    4    5 1
    10    5    6 2
    11    5    7 1
    12    7   16 ar
    13    7    8 ar
    14    8    9 ar
    15    9   14 ar
    16    9   10 ar
    17   10   11 ar
    18   10   28 1
    19   11   12 ar
    20   11   29 1
    21   12   13 ar
    22   12   30 1
    23   13   14 ar
    24   13   31 1
    25   14   15 ar
    26   15   16 ar
    27   15   17 1
    28   17   18 1
    29   17   32 1
    30   18   23 ar
    31   18   19 ar
    32   19   20 ar
    33   19   33 1
    34   20   21 ar
    35   20   34 1
    36   21   22 ar
    37   22   23 ar
    38   22   35 1
    39   23   36 1
@<TRIPOS>MOLECULE
CHEMBL381532
   63    68     0     0     0
SMALL
USER_CHARGES

@<TRIPOS>ATOM
      1 C1         -0.0184    1.5028    0.0103 C.3       1 <0>        -0.1001
      2 C2          0.0021   -0.0041    0.0020 C.ar      1 <0>         0.1320
      3 C3          0.0056   -0.6794   -1.2046 C.ar      1 <0>        -0.1665
      4 C4          0.0249   -2.0670   -1.2080 C.ar      1 <0>        -0.0713
      5 C5          0.0401   -2.7306    0.0065 C.ar      1 <0>        -0.1479
      6 C6          0.0355   -1.9865    1.1848 C.ar      1 <0>         0.2070
      7 N1          0.0218   -0.6599    1.1445 N.ar      1 <0>        -0.4540
      8 C7          0.0510   -2.6820    2.4936 C.2       1 <0>         0.1315
      9 C8          0.5283   -2.1487    3.7165 C.2       1 <0>        -0.1512
     10 C9          0.3644   -3.1081    4.6734 C.2       1 <0>         0.0768
     11 N2         -0.1903   -4.1883    4.0899 N.pl3     1 <0>        -0.3816
     12 N3         -0.3805   -3.9008    2.7274 N.2       1 <0>        -0.2533
     13 C10        -0.4036   -5.2652    5.0709 C.3       1 <0>         0.1293
     14 C11         0.4843   -4.9054    6.2812 C.3       1 <0>        -0.1321
     15 C12         0.5908   -3.3694    6.1479 C.3       1 <0>        -0.0668
     16 C13         1.1018   -0.7957    3.9194 C.ar      1 <0>         0.0124
     17 C14         2.4443   -0.6551    4.2854 C.ar      1 <0>        -0.1126
     18 C15         2.9849    0.5823    4.4753 C.ar      1 <0>        -0.0724
     19 C16         2.1963    1.7248    4.3049 C.ar      1 <0>         0.0458
     20 C17         0.8462    1.5898    3.9370 C.ar      1 <0>         0.0510
     21 C18         0.3051    0.3288    3.7397 C.ar      1 <0>        -0.0504
     22 N4          0.3448    2.8738    3.8497 N.pl3     1 <0>        -0.4904
     23 C19         1.3608    3.7262    4.1543 C.2       1 <0>         0.2568
     24 N5          2.4432    3.0550    4.4204 N.2       1 <0>        -0.4968
     25 C20        -1.0263    3.2485    3.4946 C.3       1 <0>         0.1141
     26 C21        -1.9067    3.2060    4.7451 C.3       1 <0>        -0.1335
     27 C22        -3.3386    3.5973    4.3743 C.3       1 <0>         0.0586
     28 N6         -4.1840    3.5565    5.5750 N.3       1 <0>        -0.5359
     29 C23        -4.3227    2.1810    6.0752 C.3       1 <0>         0.0144
     30 C24        -5.1594    2.1919    7.3573 C.3       1 <0>         0.0631
     31 O1         -6.4253    2.8009    7.0892 O.3       1 <0>        -0.3850
     32 C25        -6.3275    4.1416    6.6011 C.3       1 <0>         0.0627
     33 C26        -5.5027    4.1504    5.3113 C.3       1 <0>         0.0174
     34 H1          1.0042    1.8801    0.0026 H         1 <0>         0.0780
     35 H2         -0.5455    1.8639   -0.8728 H         1 <0>         0.0756
     36 H3         -0.5286    1.8543    0.9071 H         1 <0>         0.0705
     37 H4         -0.0069   -0.1322   -2.1356 H         1 <0>         0.1362
     38 H5          0.0277   -2.6167   -2.1376 H         1 <0>         0.1389
     39 H6          0.0549   -3.8100    0.0406 H         1 <0>         0.1385
     40 H7         -1.4513   -5.3009    5.3695 H         1 <0>         0.0920
     41 H8         -0.0979   -6.2235    4.6509 H         1 <0>         0.0955
     42 H9         -0.0006   -5.1831    7.2170 H         1 <0>         0.1051
     43 H10         1.4654   -5.3731    6.1981 H         1 <0>         0.0901
     44 H11         1.5815   -3.0282    6.4481 H         1 <0>         0.0993
     45 H12        -0.1792   -2.8804    6.7446 H         1 <0>         0.0976
     46 H13         3.0578   -1.5338    4.4191 H         1 <0>         0.1218
     47 H14         4.0227    0.6801    4.7578 H         1 <0>         0.1255
     48 H15        -0.7304    0.2208    3.4524 H         1 <0>         0.1166
     49 H16         1.2806    4.8030    4.1722 H         1 <0>         0.2090
     50 H17        -1.0317    4.2567    3.0805 H         1 <0>         0.0960
     51 H18        -1.4137    2.5493    2.7536 H         1 <0>         0.0881
     52 H19        -1.9013    2.1977    5.1592 H         1 <0>         0.0707
     53 H20        -1.5193    3.9052    5.4862 H         1 <0>         0.0810
     54 H21        -3.3440    4.6056    3.9602 H         1 <0>         0.0810
     55 H22        -3.7260    2.8981    3.6333 H         1 <0>         0.0387
     56 H23        -4.8184    1.5682    5.3223 H         1 <0>         0.0435
     57 H24        -3.3359    1.7699    6.2880 H         1 <0>         0.0879
     58 H25        -5.3130    1.1688    7.7003 H         1 <0>         0.0985
     59 H26        -4.6378    2.7603    8.1274 H         1 <0>         0.0608
     60 H27        -7.3259    4.5285    6.3973 H         1 <0>         0.0996
     61 H28        -5.8399    4.7666    7.3492 H         1 <0>         0.0610
     62 H29        -5.3772    5.1768    4.9665 H         1 <0>         0.0880
     63 H30        -6.0173    3.5691    4.5462 H         1 <0>         0.0440
@<TRIPOS>BOND
     1    1    2 1
     2    1   34 1
     3    1   35 1
     4    1   36 1
     5    2    7 ar
     6    2    3 ar
     7    3    4 ar
     8    3   37 1
     9    4    5 ar
    10    4   38 1
    11    5    6 ar
    12    5   39 1
    13    6    7 ar
    14    6    8 1
    15    8   12 2
    16    8    9 1
    17    9   10 2
    18    9   16 1
    19   10   15 1
    20   10   11 1
    21   11   12 1
    22   11   13 1
    23   13   14 1
    24   13   40 1
    25   13   41 1
    26   14   15 1
    27   14   42 1
    28   14   43 1
    29   15   44 1
    30   15   45 1
    31   16   21 ar
    32   16   17 ar
    33   17   18 ar
    34   17   46 1
    35   18   19 ar
    36   18   47 1
    37   19   24 1
    38   19   20 ar
    39   20   21 ar
    40   20   22 1
    41   21   48 1
    42   22   23 1
    43   22   25 1
    44   23   24 2
    45   23   49 1
    46   25   26 1
    47   25   50 1
    48   25   51 1
    49   26   27 1
    50   26   52 1
    51   26   53 1
    52   27   28 1
    53   27   54 1
    54   27   55 1
    55   28   33 1
    56   28   29 1
    57   29   30 1
    58   29   56 1
    59   29   57 1
    60   30   31 1
    61   30   58 1
    62   30   59 1
    63   31   32 1
    64   32   33 1
    65   32   60 1
    66   32   61 1
    67   33   62 1
    68   33   63 1
@<TRIPOS>MOLECULE
CHEMBL381532__1
   64    69     0     0     0
SMALL
USER_CHARGES

@<TRIPOS>ATOM
      1 C1         -0.0184    1.5028    0.0103 C.3       1 <0>        -0.0963
      2 C2          0.0021   -0.0041    0.0020 C.ar      1 <0>         0.1268
      3 C3          0.0056   -0.6794   -1.2046 C.ar      1 <0>        -0.1635
      4 C4          0.0249   -2.0670   -1.2080 C.ar      1 <0>        -0.0686
      5 C5          0.0401   -2.7306    0.0065 C.ar      1 <0>        -0.1442
      6 C6          0.0355   -1.9865    1.1848 C.ar      1 <0>         0.2035
      7 N1          0.0218   -0.6599    1.1445 N.ar      1 <0>        -0.4584
      8 C7          0.0510   -2.6820    2.4936 C.2       1 <0>         0.1332
      9 C8          0.5283   -2.1487    3.7165 C.2       1 <0>        -0.1616
     10 C9          0.3644   -3.1081    4.6734 C.2       1 <0>         0.0788
     11 N2         -0.1903   -4.1883    4.0899 N.pl3     1 <0>        -0.3783
     12 N3         -0.3805   -3.9008    2.7274 N.2       1 <0>        -0.2500
     13 C10        -0.4036   -5.2652    5.0709 C.3       1 <0>         0.1273
     14 C11         0.4843   -4.9054    6.2812 C.3       1 <0>        -0.1332
     15 C12         0.5908   -3.3694    6.1479 C.3       1 <0>        -0.0664
     16 C13         1.1018   -0.7957    3.9194 C.ar      1 <0>         0.0274
     17 C14         2.4443   -0.6551    4.2854 C.ar      1 <0>        -0.1104
     18 C15         2.9849    0.5823    4.4753 C.ar      1 <0>        -0.0659
     19 C16         2.1963    1.7248    4.3049 C.ar      1 <0>         0.0457
     20 C17         0.8462    1.5898    3.9370 C.ar      1 <0>         0.0486
     21 C18         0.3051    0.3288    3.7397 C.ar      1 <0>        -0.0607
     22 N4          0.3448    2.8738    3.8497 N.pl3     1 <0>        -0.5008
     23 C19         1.3608    3.7262    4.1543 C.2       1 <0>         0.2525
     24 N5          2.4432    3.0550    4.4204 N.2       1 <0>        -0.4832
     25 C20        -1.0263    3.2485    3.4946 C.3       1 <0>         0.1216
     26 C21        -1.9067    3.2060    4.7451 C.3       1 <0>        -0.1718
     27 C22        -3.3386    3.5973    4.3743 C.3       1 <0>        -0.0062
     28 N6         -4.1840    3.5565    5.5750 N.4       1 <0>        -0.3845
     29 C23        -4.2742    2.1738    6.0640 C.3       1 <0>        -0.0492
     30 C24        -5.1552    2.1340    7.3151 C.3       1 <0>         0.0369
     31 O1         -6.4454    2.6651    7.0003 O.3       1 <0>        -0.3559
     32 C25        -6.4078    4.0033    6.4967 C.3       1 <0>         0.0354
     33 C26        -5.5291    4.0466    5.2441 C.3       1 <0>        -0.0435
     34 H1          1.0042    1.8801    0.0026 H         1 <0>         0.0782
     35 H2         -0.5455    1.8639   -0.8728 H         1 <0>         0.0763
     36 H3         -0.5286    1.8543    0.9071 H         1 <0>         0.0645
     37 H4         -0.0069   -0.1322   -2.1356 H         1 <0>         0.1377
     38 H5          0.0277   -2.6167   -2.1376 H         1 <0>         0.1415
     39 H6          0.0549   -3.8100    0.0406 H         1 <0>         0.1402
     40 H7         -1.4513   -5.3009    5.3695 H         1 <0>         0.0934
     41 H8         -0.0979   -6.2235    4.6509 H         1 <0>         0.0986
     42 H9         -0.0006   -5.1831    7.2170 H         1 <0>         0.1068
     43 H10         1.4654   -5.3731    6.1981 H         1 <0>         0.0925
     44 H11         1.5815   -3.0282    6.4481 H         1 <0>         0.0999
     45 H12        -0.1792   -2.8804    6.7446 H         1 <0>         0.0956
     46 H13         3.0578   -1.5338    4.4191 H         1 <0>         0.1264
     47 H14         4.0227    0.6801    4.7578 H         1 <0>         0.1301
     48 H15        -0.7304    0.2208    3.4524 H         1 <0>         0.1160
     49 H16         1.2806    4.8030    4.1722 H         1 <0>         0.2108
     50 H17        -1.0317    4.2567    3.0805 H         1 <0>         0.1048
     51 H18        -1.4137    2.5493    2.7536 H         1 <0>         0.0987
     52 H19        -1.9013    2.1977    5.1592 H         1 <0>         0.0946
     53 H20        -1.5193    3.9052    5.4862 H         1 <0>         0.0965
     54 H21        -3.3440    4.6056    3.9602 H         1 <0>         0.1383
     55 H22        -3.7260    2.8981    3.6333 H         1 <0>         0.1345
     56 H23        -4.7120    1.5425    5.2907 H         1 <0>         0.1400
     57 H24        -3.2768    1.8093    6.3098 H         1 <0>         0.1424
     58 H25        -5.2588    1.1034    7.6547 H         1 <0>         0.1421
     59 H26        -4.6971    2.7330    8.1021 H         1 <0>         0.0818
     60 H27        -7.4179    4.3257    6.2440 H         1 <0>         0.1430
     61 H28        -5.9926    4.6663    7.2557 H         1 <0>         0.0818
     62 H29        -5.4633    5.0724    4.8813 H         1 <0>         0.1442
     63 H30        -5.9664    3.4146    4.4711 H         1 <0>         0.1397
     64 H31        -3.7796    4.1410    6.2912 H         1 <0>         0.4238
@<TRIPOS>BOND
     1    1    2 1
     2    1   34 1
     3    1   35 1
     4    1   36 1
     5    2    7 ar
     6    2    3 ar
     7    3    4 ar
     8    3   37 1
     9    4    5 ar
    10    4   38 1
    11    5    6 ar
    12    5   39 1
    13    6    7 ar
    14    6    8 1
    15    8   12 2
    16    8    9 1
    17    9   10 2
    18    9   16 1
    19   10   15 1
    20   10   11 1
    21   11   12 1
    22   11   13 1
    23   13   14 1
    24   13   40 1
    25   13   41 1
    26   14   15 1
    27   14   42 1
    28   14   43 1
    29   15   44 1
    30   15   45 1
    31   16   21 ar
    32   16   17 ar
    33   17   18 ar
    34   17   46 1
    35   18   19 ar
    36   18   47 1
    37   19   24 1
    38   19   20 ar
    39   20   21 ar
    40   20   22 1
    41   21   48 1
    42   22   23 1
    43   22   25 1
    44   23   24 2
    45   23   49 1
    46   25   26 1
    47   25   50 1
    48   25   51 1
    49   26   27 1
    50   26   52 1
    51   26   53 1
    52   27   28 1
    53   27   54 1
    54   27   55 1
    55   28   33 1
    56   28   29 1
    57   28   64 1
    58   29   30 1
    59   29   56 1
    60   29   57 1
    61   30   31 1
    62   30   58 1
    63   30   59 1
    64   31   32 1
    65   32   33 1
    66   32   60 1
    67   32   61 1
    68   33   62 1
    69   33   63 1
@<TRIPOS>MOLECULE
CHEMBL571451
   37    40     0     0     0
SMALL
USER_CHARGES

@<TRIPOS>ATOM
      1 C1         -0.2814    1.2440    0.2150 C.ar      1 <0>        -0.1248
      2 C2          0.6191    2.1319   -0.3670 C.ar      1 <0>        -0.0711
      3 C3          1.7046    1.6802   -1.0568 C.ar      1 <0>        -0.1053
      4 C4          1.9194    0.3002   -1.1831 C.ar      1 <0>         0.1931
      5 C5          1.0013   -0.6015   -0.5897 C.ar      1 <0>        -0.1906
      6 C6         -0.1024   -0.1044    0.1113 C.ar      1 <0>        -0.0744
      7 C7          1.2385   -1.9916   -0.7296 C.ar      1 <0>         0.4712
      8 N1          2.3070   -2.3812   -1.4084 N.ar      1 <0>        -0.5705
      9 C8          3.1445   -1.4994   -1.9503 C.ar      1 <0>         0.4085
     10 N2          2.9705   -0.1946   -1.8500 N.ar      1 <0>        -0.5303
     11 C9          4.3217   -2.0038   -2.6976 C.ar      1 <0>        -0.0366
     12 C10         4.4805   -3.3723   -2.9118 C.ar      1 <0>        -0.0663
     13 C11         5.5775   -3.8367   -3.6083 C.ar      1 <0>        -0.1165
     14 C12         6.5194   -2.9475   -4.0939 C.ar      1 <0>        -0.0879
     15 C13         6.3675   -1.5877   -3.8846 C.ar      1 <0>        -0.0462
     16 C14         5.2703   -1.1114   -3.1933 C.ar      1 <0>        -0.0596
     17 Cl1         7.5541   -0.4786   -4.4974 Cl        1 <0>        -0.0630
     18 N3          0.3781   -2.9161   -0.1723 N.pl3     1 <0>        -0.6367
     19 C15         0.5920   -4.2780   -0.3754 C.ar      1 <0>         0.1934
     20 C16         1.8846   -4.7979   -0.4360 C.ar      1 <0>        -0.1682
     21 C17         2.0535   -6.1517   -0.6380 C.ar      1 <0>         0.1158
     22 N4          1.0119   -6.9509   -0.7730 N.ar      1 <0>        -0.4946
     23 C18        -0.2265   -6.4974   -0.7216 C.ar      1 <0>         0.1190
     24 C19        -0.4809   -5.1573   -0.5174 C.ar      1 <0>        -0.2008
     25 H1         -1.1310    1.6281    0.7601 H         1 <0>         0.1340
     26 H2          0.4549    3.1950   -0.2710 H         1 <0>         0.1372
     27 H3          2.3947    2.3807   -1.5034 H         1 <0>         0.1437
     28 H4         -0.8078   -0.7832    0.5674 H         1 <0>         0.1269
     29 H5          3.7463   -4.0678   -2.5330 H         1 <0>         0.1420
     30 H6          5.7012   -4.8967   -3.7742 H         1 <0>         0.1397
     31 H7          7.3765   -3.3157   -4.6381 H         1 <0>         0.1377
     32 H8          5.1500   -0.0500   -3.0340 H         1 <0>         0.1483
     33 H9         -0.3754   -2.6177    0.3607 H         1 <0>         0.4248
     34 H10         2.7413   -4.1495   -0.3267 H         1 <0>         0.1515
     35 H11         3.0509   -6.5631   -0.6867 H         1 <0>         0.1596
     36 H12        -1.0513   -7.1851   -0.8368 H         1 <0>         0.1600
     37 H13        -1.4968   -4.7935   -0.4719 H         1 <0>         0.1368
@<TRIPOS>BOND
     1    1    6 ar
     2    1    2 ar
     3    1   25 1
     4    2    3 ar
     5    2   26 1
     6    3    4 ar
     7    3   27 1
     8    4   10 ar
     9    4    5 ar
    10    5    6 ar
    11    5    7 ar
    12    6   28 1
    13    7    8 ar
    14    7   18 1
    15    8    9 ar
    16    9   10 ar
    17    9   11 1
    18   11   16 ar
    19   11   12 ar
    20   12   13 ar
    21   12   29 1
    22   13   14 ar
    23   13   30 1
    24   14   15 ar
    25   14   31 1
    26   15   16 ar
    27   15   17 1
    28   16   32 1
    29   18   19 1
    30   18   33 1
    31   19   24 ar
    32   19   20 ar
    33   20   21 ar
    34   20   34 1
    35   21   22 ar
    36   21   35 1
    37   22   23 ar
    38   23   24 ar
    39   23   36 1
    40   24   37 1
@<TRIPOS>MOLECULE
CHEMBL129760
   38    40     0     0     0
SMALL
USER_CHARGES

@<TRIPOS>ATOM
      1 C1         -0.0184    1.5028    0.0103 C.3       1 <0>        -0.1035
      2 C2          0.0021   -0.0041    0.0020 C.ar      1 <0>         0.1336
      3 C3          0.0055   -0.6794   -1.2045 C.ar      1 <0>        -0.1668
      4 C4          0.0244   -2.0670   -1.2080 C.ar      1 <0>        -0.0728
      5 C5          0.0391   -2.7306    0.0065 C.ar      1 <0>        -0.1496
      6 C6          0.0346   -1.9865    1.1848 C.ar      1 <0>         0.2015
      7 N1          0.0218   -0.6599    1.1445 N.ar      1 <0>        -0.4529
      8 C7          0.0503   -2.6820    2.4936 C.2       1 <0>         0.1280
      9 C8          0.5279   -2.1485    3.7172 C.2       1 <0>        -0.1619
     10 C9          0.3639   -3.1053    4.6730 C.2       1 <0>         0.0624
     11 N2         -0.1885   -4.1870    4.0849 N.pl3     1 <0>        -0.3651
     12 N3         -0.3817   -3.9023    2.7279 N.2       1 <0>        -0.2746
     13 C10        -0.5322   -5.4441    4.7541 C.3       1 <0>         0.1000
     14 C11         1.1018   -0.7952    3.9198 C.ar      1 <0>        -0.0243
     15 C12         2.1067   -0.3292    3.0741 C.ar      1 <0>        -0.0426
     16 C13         2.6382    0.9293    3.2650 C.ar      1 <0>        -0.1489
     17 C14         2.1734    1.7312    4.2983 C.ar      1 <0>         0.1237
     18 C15         1.1726    1.2698    5.1421 C.ar      1 <0>        -0.2070
     19 C16         0.6328    0.0146    4.9525 C.ar      1 <0>        -0.0709
     20 O1          2.6996    2.9704    4.4844 O.3       1 <0>        -0.3197
     21 C17         2.1750    3.7422    5.5665 C.3       1 <0>         0.0279
     22 H1          1.0042    1.8801    0.0026 H         1 <0>         0.0797
     23 H2         -0.5455    1.8639   -0.8728 H         1 <0>         0.0748
     24 H3         -0.5286    1.8543    0.9071 H         1 <0>         0.0772
     25 H4         -0.0067   -0.1322   -2.1355 H         1 <0>         0.1365
     26 H5          0.0271   -2.6167   -2.1375 H         1 <0>         0.1382
     27 H6          0.0536   -3.8100    0.0406 H         1 <0>         0.1379
     28 H7          0.6293   -3.0144    5.7160 H         1 <0>         0.1805
     29 H8         -1.5551   -5.3894    5.1267 H         1 <0>         0.0785
     30 H9         -0.4472   -6.2679    4.0455 H         1 <0>         0.0921
     31 H10         0.1498   -5.6101    5.5880 H         1 <0>         0.0916
     32 H11         2.4692   -0.9529    2.2704 H         1 <0>         0.1165
     33 H12         3.4170    1.2910    2.6100 H         1 <0>         0.1263
     34 H13         0.8132    1.8958    5.9455 H         1 <0>         0.1256
     35 H14        -0.1490   -0.3421    5.6066 H         1 <0>         0.1203
     36 H15         2.6804    4.7072    5.6031 H         1 <0>         0.0987
     37 H16         1.1064    3.8971    5.4177 H         1 <0>         0.0549
     38 H17         2.3380    3.2109    6.5042 H         1 <0>         0.0543
@<TRIPOS>BOND
     1    1    2 1
     2    1   22 1
     3    1   23 1
     4    1   24 1
     5    2    7 ar
     6    2    3 ar
     7    3    4 ar
     8    3   25 1
     9    4    5 ar
    10    4   26 1
    11    5    6 ar
    12    5   27 1
    13    6    7 ar
    14    6    8 1
    15    8   12 2
    16    8    9 1
    17    9   10 2
    18    9   14 1
    19   10   11 1
    20   10   28 1
    21   11   12 1
    22   11   13 1
    23   13   29 1
    24   13   30 1
    25   13   31 1
    26   14   19 ar
    27   14   15 ar
    28   15   16 ar
    29   15   32 1
    30   16   17 ar
    31   16   33 1
    32   17   18 ar
    33   17   20 1
    34   18   19 ar
    35   18   34 1
    36   19   35 1
    37   20   21 1
    38   21   36 1
    39   21   37 1
    40   21   38 1
@<TRIPOS>MOLECULE
CHEMBL537968
   43    47     0     0     0
SMALL
USER_CHARGES

@<TRIPOS>ATOM
      1 C1          1.1812    1.4299    0.0801 C.3       1 <0>        -0.1026
      2 C2          0.9709   -0.0622    0.0578 C.ar      1 <0>         0.1239
      3 C3          1.0129   -0.7396   -1.1484 C.ar      1 <0>        -0.1552
      4 C4          0.8189   -2.1126   -1.1641 C.ar      1 <0>        -0.0804
      5 C5          0.5882   -2.7613    0.0379 C.ar      1 <0>        -0.1256
      6 C6          0.5592   -2.0164    1.2140 C.ar      1 <0>         0.1722
      7 N1          0.7550   -0.7044    1.1865 N.ar      1 <0>        -0.4375
      8 C7          0.3132   -2.6965    2.5097 C.ar      1 <0>         0.4146
      9 N2          0.1319   -4.0036    2.5131 N.ar      1 <0>        -0.5332
     10 C8         -0.0924   -4.6544    3.6621 C.ar      1 <0>         0.1921
     11 C9         -0.2886   -6.0424    3.7020 C.ar      1 <0>        -0.1061
     12 C10        -0.5129   -6.6562    4.8983 C.ar      1 <0>        -0.0732
     13 C11        -0.5509   -5.9264    6.0832 C.ar      1 <0>        -0.1277
     14 C12        -0.3640   -4.5751    6.0802 C.ar      1 <0>        -0.0723
     15 C13        -0.1310   -3.9139    4.8698 C.ar      1 <0>        -0.1902
     16 C14         0.0705   -2.5125    4.8058 C.ar      1 <0>         0.4662
     17 N3          0.2901   -1.9632    3.6203 N.ar      1 <0>        -0.5448
     18 N4          0.0433   -1.7409    5.9489 N.pl3     1 <0>        -0.6348
     19 C15         0.1240   -0.3464    5.8543 C.ar      1 <0>         0.1145
     20 C16        -0.4915    0.3141    4.7900 C.ar      1 <0>        -0.0417
     21 C17        -0.4246    1.6728    4.6795 C.ar      1 <0>        -0.1207
     22 C18         0.2636    2.4181    5.6340 C.ar      1 <0>         0.1228
     23 C19         0.8882    1.7623    6.7118 C.ar      1 <0>        -0.1647
     24 C20         0.8073    0.3690    6.8173 C.ar      1 <0>        -0.0683
     25 C21         1.5130    2.8042    7.5204 C.2       1 <0>         0.0754
     26 N5          1.2659    3.9504    6.9532 N.2       1 <0>        -0.2479
     27 N6          0.5041    3.7594    5.7959 N.pl3     1 <0>        -0.5101
     28 H1          0.1955    4.4622    5.2028 H         1 <0>         0.4402
     29 H2          2.2432    1.6455    0.1968 H         1 <0>         0.0781
     30 H3          0.8235    1.8612   -0.8549 H         1 <0>         0.0756
     31 H4          0.6288    1.8623    0.9144 H         1 <0>         0.0776
     32 H5          1.1947   -0.2041   -2.0685 H         1 <0>         0.1381
     33 H6          0.8467   -2.6637   -2.0925 H         1 <0>         0.1413
     34 H7          0.4326   -3.8298    0.0625 H         1 <0>         0.1495
     35 H8         -0.2625   -6.6214    2.7907 H         1 <0>         0.1419
     36 H9         -0.6638   -7.7252    4.9273 H         1 <0>         0.1354
     37 H10        -0.7312   -6.4371    7.0176 H         1 <0>         0.1325
     38 H11        -0.3961   -4.0196    7.0058 H         1 <0>         0.1273
     39 H12        -0.0318   -2.1645    6.8183 H         1 <0>         0.4209
     40 H13        -1.0264   -0.2564    4.0452 H         1 <0>         0.1392
     41 H14        -0.9056    2.1707    3.8505 H         1 <0>         0.1291
     42 H15         1.2791   -0.1427    7.6430 H         1 <0>         0.1315
     43 H16         2.0793    2.6520    8.4273 H         1 <0>         0.1970
@<TRIPOS>BOND
     1    1    2 1
     2    1   29 1
     3    1   30 1
     4    1   31 1
     5    2    7 ar
     6    2    3 ar
     7    3    4 ar
     8    3   32 1
     9    4    5 ar
    10    4   33 1
    11    5    6 ar
    12    5   34 1
    13    6    7 ar
    14    6    8 1
    15    8   17 ar
    16    8    9 ar
    17    9   10 ar
    18   10   15 ar
    19   10   11 ar
    20   11   12 ar
    21   11   35 1
    22   12   13 ar
    23   12   36 1
    24   13   14 ar
    25   13   37 1
    26   14   15 ar
    27   14   38 1
    28   15   16 ar
    29   16   17 ar
    30   16   18 1
    31   18   19 1
    32   18   39 1
    33   19   24 ar
    34   19   20 ar
    35   20   21 ar
    36   20   40 1
    37   21   22 ar
    38   21   41 1
    39   22   27 1
    40   22   23 ar
    41   23   24 ar
    42   23   25 1
    43   24   42 1
    44   25   26 2
    45   25   43 1
    46   26   27 1
    47   27   28 1
@<TRIPOS>MOLECULE
CHEMBL537968__1
   43    47     0     0     0
SMALL
USER_CHARGES

@<TRIPOS>ATOM
      1 C1          1.4644    1.4188    0.1361 C.3       1 <0>        -0.1035
      2 C2          1.2643   -0.0746    0.1080 C.ar      1 <0>         0.1250
      3 C3          1.3726   -0.7554   -1.0922 C.ar      1 <0>        -0.1556
      4 C4          1.1877   -2.1296   -1.1132 C.ar      1 <0>        -0.0810
      5 C5          0.8989   -2.7760    0.0775 C.ar      1 <0>        -0.1263
      6 C6          0.8049   -2.0277    1.2480 C.ar      1 <0>         0.1721
      7 N1          0.9941   -0.7147    1.2262 N.ar      1 <0>        -0.4362
      8 C7          0.4962   -2.7053    2.5315 C.ar      1 <0>         0.4153
      9 N2          0.3226   -4.0135    2.5299 N.ar      1 <0>        -0.5343
     10 C8          0.0431   -4.6622    3.6679 C.ar      1 <0>         0.1922
     11 C9         -0.1468   -6.0512    3.7023 C.ar      1 <0>        -0.1062
     12 C10        -0.4290   -6.6627    4.8875 C.ar      1 <0>        -0.0738
     13 C11        -0.5325   -5.9296    6.0663 C.ar      1 <0>        -0.1288
     14 C12        -0.3536   -4.5771    6.0685 C.ar      1 <0>        -0.0719
     15 C13        -0.0623   -3.9183    4.8696 C.ar      1 <0>        -0.1910
     16 C14         0.1340   -2.5159    4.8113 C.ar      1 <0>         0.4665
     17 N3          0.4115   -1.9688    3.6369 N.ar      1 <0>        -0.5426
     18 N4          0.0433   -1.7410    5.9488 N.pl3     1 <0>        -0.6378
     19 C15         0.1240   -0.3470    5.8543 C.ar      1 <0>         0.1274
     20 C16        -0.4993    0.3035    4.7794 C.ar      1 <0>        -0.0491
     21 C17        -0.4537    1.6504    4.6374 C.ar      1 <0>        -0.0847
     22 C18         0.2359    2.4314    5.5903 C.ar      1 <0>         0.1031
     23 C19         0.8903    1.7522    6.7192 C.ar      1 <0>        -0.1913
     24 C20         0.8014    0.3465    6.8116 C.ar      1 <0>        -0.0772
     25 C21         1.4799    2.7421    7.4829 C.2       1 <0>         0.0794
     26 N5          1.2243    3.9214    6.8975 N.pl3     1 <0>        -0.4266
     27 N6          0.4628    3.7243    5.7400 N.2       1 <0>        -0.3018
     28 H1          1.5231    4.7832    7.2275 H         1 <0>         0.4444
     29 H2          2.5177    1.6411    0.3068 H         1 <0>         0.0778
     30 H3          1.1530    1.8451   -0.8176 H         1 <0>         0.0754
     31 H4          0.8671    1.8504    0.9393 H         1 <0>         0.0797
     32 H5          1.5986   -0.2216   -2.0034 H         1 <0>         0.1379
     33 H6          1.2667   -2.6834   -2.0371 H         1 <0>         0.1409
     34 H7          0.7486   -3.8453    0.0976 H         1 <0>         0.1491
     35 H8         -0.0702   -6.6327    2.7955 H         1 <0>         0.1416
     36 H9         -0.5750   -7.7325    4.9122 H         1 <0>         0.1349
     37 H10        -0.7578   -6.4385    6.9919 H         1 <0>         0.1319
     38 H11        -0.4364   -4.0191    6.9894 H         1 <0>         0.1268
     39 H12        -0.0765   -2.1623    6.8143 H         1 <0>         0.4199
     40 H13        -1.0294   -0.2848    4.0450 H         1 <0>         0.1330
     41 H14        -0.9425    2.1243    3.7990 H         1 <0>         0.1318
     42 H15         1.2698   -0.1756    7.6328 H         1 <0>         0.1260
     43 H16         2.0458    2.5924    8.3905 H         1 <0>         0.1876
@<TRIPOS>BOND
     1    1    2 1
     2    1   29 1
     3    1   30 1
     4    1   31 1
     5    2    7 ar
     6    2    3 ar
     7    3    4 ar
     8    3   32 1
     9    4    5 ar
    10    4   33 1
    11    5    6 ar
    12    5   34 1
    13    6    7 ar
    14    6    8 1
    15    8   17 ar
    16    8    9 ar
    17    9   10 ar
    18   10   15 ar
    19   10   11 ar
    20   11   12 ar
    21   11   35 1
    22   12   13 ar
    23   12   36 1
    24   13   14 ar
    25   13   37 1
    26   14   15 ar
    27   14   38 1
    28   15   16 ar
    29   16   17 ar
    30   16   18 1
    31   18   19 1
    32   18   39 1
    33   19   24 ar
    34   19   20 ar
    35   20   21 ar
    36   20   40 1
    37   21   22 ar
    38   21   41 1
    39   22   23 ar
    40   22   27 2
    41   23   24 ar
    42   23   25 2
    43   24   42 1
    44   25   43 1
    45   25   26 1
    46   26   28 1
    47   26   27 1
@<TRIPOS>MOLECULE
CHEMBL564250
   39    42     0     0     0
SMALL
USER_CHARGES

@<TRIPOS>ATOM
      1 C1          0.8974    2.0131    0.6941 C.3       1 <0>        -0.1042
      2 C2          1.2567    0.5499    0.6607 C.ar      1 <0>         0.1269
      3 C3          1.8750    0.0243   -0.4601 C.ar      1 <0>        -0.1498
      4 C4          2.2043   -1.3228   -0.4864 C.ar      1 <0>        -0.0786
      5 C5          1.8999   -2.0992    0.6193 C.ar      1 <0>        -0.1225
      6 C6          1.2769   -1.5039    1.7135 C.ar      1 <0>         0.1699
      7 N1          0.9829   -0.2098    1.7006 N.ar      1 <0>        -0.4382
      8 C7          0.9438   -2.3219    2.9051 C.ar      1 <0>         0.4314
      9 N2          0.3444   -1.7477    3.9431 N.ar      1 <0>        -0.5358
     10 C8          0.0236   -2.4248    5.0310 C.ar      1 <0>         0.4796
     11 C9          0.3261   -3.8141    5.1012 C.ar      1 <0>        -0.2376
     12 C10         0.0782   -4.7633    6.1708 C.2       1 <0>        -0.0866
     13 C11         0.4550   -6.0418    6.0133 C.2       1 <0>        -0.1674
     14 S1          1.1839   -6.0641    4.3864 S.3       1 <0>         0.1233
     15 C12         0.9631   -4.3566    3.9616 C.ar      1 <0>         0.1515
     16 N3          1.2449   -3.6138    2.9122 N.ar      1 <0>        -0.4991
     17 C13        -0.5942   -4.3183    7.4439 C.3       1 <0>        -0.1160
     18 N4         -0.6001   -1.7899    6.0921 N.pl3     1 <0>        -0.6440
     19 C14        -0.8235   -0.4153    6.0476 C.ar      1 <0>         0.1857
     20 C15        -1.1015    0.2256    4.8406 C.ar      1 <0>        -0.1576
     21 C16        -1.3166    1.5878    4.8392 C.ar      1 <0>         0.1188
     22 N5         -1.2616    2.2827    5.9600 N.ar      1 <0>        -0.4968
     23 C17        -1.0014    1.7131    7.1219 C.ar      1 <0>         0.1156
     24 C18        -0.7807    0.3545    7.2096 C.ar      1 <0>        -0.2047
     25 H1          1.7317    2.5829    1.1031 H         1 <0>         0.0801
     26 H2          0.6833    2.3578   -0.3176 H         1 <0>         0.0774
     27 H3          0.0172    2.1569    1.3208 H         1 <0>         0.0798
     28 H4          2.0986    0.6569   -1.3065 H         1 <0>         0.1409
     29 H5          2.6870   -1.7565   -1.3497 H         1 <0>         0.1438
     30 H6          2.1419   -3.1517    0.6327 H         1 <0>         0.1501
     31 H7          0.3433   -6.8620    6.7071 H         1 <0>         0.1994
     32 H8         -1.6736   -4.2916    7.2946 H         1 <0>         0.0805
     33 H9         -0.3554   -5.0182    8.2448 H         1 <0>         0.0865
     34 H10        -0.2399   -3.3233    7.7133 H         1 <0>         0.0667
     35 H11        -0.8814   -2.3021    6.8664 H         1 <0>         0.4247
     36 H12        -1.1473   -0.3370    3.9198 H         1 <0>         0.1568
     37 H13        -1.5325    2.0925    3.9091 H         1 <0>         0.1575
     38 H14        -0.9651    2.3179    8.0159 H         1 <0>         0.1582
     39 H15        -0.5730   -0.1060    8.1642 H         1 <0>         0.1339
@<TRIPOS>BOND
     1    1    2 1
     2    1   25 1
     3    1   26 1
     4    1   27 1
     5    2    7 ar
     6    2    3 ar
     7    3    4 ar
     8    3   28 1
     9    4    5 ar
    10    4   29 1
    11    5    6 ar
    12    5   30 1
    13    6    7 ar
    14    6    8 1
    15    8   16 ar
    16    8    9 ar
    17    9   10 ar
    18   10   11 ar
    19   10   18 1
    20   11   15 ar
    21   11   12 1
    22   12   13 2
    23   12   17 1
    24   13   14 1
    25   13   31 1
    26   14   15 1
    27   15   16 ar
    28   17   32 1
    29   17   33 1
    30   17   34 1
    31   18   19 1
    32   18   35 1
    33   19   24 ar
    34   19   20 ar
    35   20   21 ar
    36   20   36 1
    37   21   22 ar
    38   21   37 1
    39   22   23 ar
    40   23   24 ar
    41   23   38 1
    42   24   39 1
@<TRIPOS>MOLECULE
CHEMBL181640
   34    37     0     0     0
SMALL
USER_CHARGES

@<TRIPOS>ATOM
      1 C1          0.7569    0.6914   -2.0645 C.ar      1 <0>        -0.1140
      2 C2          1.9325    1.4137   -1.8779 C.ar      1 <0>        -0.1035
      3 C3          2.8911    0.9846   -1.0111 C.ar      1 <0>        -0.0909
      4 C4          2.6960   -0.2062   -0.2903 C.ar      1 <0>         0.1310
      5 C5          1.4987   -0.9363   -0.4841 C.ar      1 <0>        -0.0863
      6 C6          0.5343   -0.4682   -1.3817 C.ar      1 <0>        -0.0983
      7 C7          1.3068   -2.1756    0.2727 C.ar      1 <0>         0.0881
      8 C8          2.3306   -2.5555    1.1435 C.ar      1 <0>        -0.1342
      9 C9          3.4614   -1.7620    1.2536 C.ar      1 <0>         0.1413
     10 N1          3.6175   -0.6543    0.5686 N.ar      1 <0>        -0.4777
     11 C10         0.0891   -2.9844    0.1226 C.2       1 <0>        -0.1589
     12 C11        -0.0486   -4.3535   -0.1081 C.2       1 <0>         0.1724
     13 N2         -1.2640   -4.8596   -0.2076 N.2       1 <0>        -0.5659
     14 C12        -2.3410   -4.1015   -0.0939 C.2       1 <0>         0.3836
     15 S1         -1.6274   -2.4883    0.1926 S.3       1 <0>         0.0281
     16 N3         -3.6722   -4.4634   -0.1707 N.pl3     1 <0>        -0.7890
     17 C13         1.1432   -5.2206   -0.2391 C.ar      1 <0>         0.1804
     18 C14         1.0511   -6.5765    0.0775 C.ar      1 <0>        -0.1314
     19 C15         2.1741   -7.3739   -0.0502 C.ar      1 <0>        -0.0793
     20 C16         3.3548   -6.7910   -0.4905 C.ar      1 <0>        -0.1639
     21 C17         3.3758   -5.4408   -0.7868 C.ar      1 <0>         0.1021
     22 N4          2.2910   -4.7036   -0.6622 N.ar      1 <0>        -0.4608
     23 H1          0.0104    1.0560   -2.7547 H         1 <0>         0.1277
     24 H2          2.0868    2.3291   -2.4299 H         1 <0>         0.1305
     25 H3          3.7975    1.5566   -0.8783 H         1 <0>         0.1366
     26 H4         -0.3810   -1.0211   -1.5332 H         1 <0>         0.1258
     27 H5          2.2416   -3.4602    1.7266 H         1 <0>         0.1300
     28 H6          4.2453   -2.0677    1.9307 H         1 <0>         0.1583
     29 H7         -3.9148   -5.3893   -0.3281 H         1 <0>         0.4200
     30 H8         -4.3642   -3.7915   -0.0671 H         1 <0>         0.4241
     31 H9          0.1164   -6.9972    0.4176 H         1 <0>         0.1401
     32 H10         2.1334   -8.4266    0.1878 H         1 <0>         0.1377
     33 H11         4.2489   -7.3869   -0.6001 H         1 <0>         0.1375
     34 H12         4.2930   -4.9850   -1.1295 H         1 <0>         0.1588
@<TRIPOS>BOND
     1    1    6 ar
     2    1    2 ar
     3    1   23 1
     4    2    3 ar
     5    2   24 1
     6    3    4 ar
     7    3   25 1
     8    4   10 ar
     9    4    5 ar
    10    5    6 ar
    11    5    7 ar
    12    6   26 1
    13    7    8 ar
    14    7   11 1
    15    8    9 ar
    16    8   27 1
    17    9   10 ar
    18    9   28 1
    19   11   15 1
    20   11   12 2
    21   12   13 1
    22   12   17 1
    23   13   14 2
    24   14   15 1
    25   14   16 1
    26   16   29 1
    27   16   30 1
    28   17   22 ar
    29   17   18 ar
    30   18   19 ar
    31   18   31 1
    32   19   20 ar
    33   19   32 1
    34   20   21 ar
    35   20   33 1
    36   21   22 ar
    37   21   34 1
@<TRIPOS>MOLECULE
CHEMBL129677
   36    39     0     0     0
SMALL
USER_CHARGES

@<TRIPOS>ATOM
      1 C1         -0.0184    1.5028    0.0103 C.3       1 <0>        -0.1103
      2 C2          0.0021   -0.0041    0.0020 C.ar      1 <0>         0.1432
      3 C3          0.0056   -0.6795   -1.2053 C.ar      1 <0>        -0.1618
      4 C4          0.0249   -2.0673   -1.2099 C.ar      1 <0>        -0.0651
      5 C5          0.0401   -2.7321    0.0036 C.ar      1 <0>        -0.1650
      6 C6          0.0355   -1.9877    1.1843 C.ar      1 <0>         0.1772
      7 N1          0.0218   -0.6594    1.1441 N.ar      1 <0>        -0.4460
      8 C7          0.0510   -2.6813    2.4880 C.2       1 <0>         0.1449
      9 C8          0.5171   -2.1672    3.6936 C.2       1 <0>        -0.1671
     10 C9          0.3399   -3.1666    4.6688 C.2       1 <0>         0.0717
     11 N2         -0.1949   -4.2126    4.0985 N.2       1 <0>        -0.2698
     12 N3         -0.3936   -3.9435    2.7396 N.pl3     1 <0>        -0.4601
     13 H1         -0.7792   -4.5514    2.0894 H         1 <0>         0.4432
     14 C10         1.0920   -0.8223    3.9101 C.ar      1 <0>         0.0657
     15 C11         2.4223   -0.6612    4.2811 C.ar      1 <0>        -0.1735
     16 C12         2.9304    0.6161    4.4758 C.ar      1 <0>         0.1302
     17 N4          2.1900    1.6884    4.3199 N.ar      1 <0>        -0.4795
     18 C13         0.9032    1.6104    3.9644 C.ar      1 <0>         0.1309
     19 C14         0.3063    0.3465    3.7403 C.ar      1 <0>        -0.0615
     20 C15        -1.0406    0.2715    3.3631 C.ar      1 <0>        -0.0415
     21 C16        -1.7626    1.4173    3.2106 C.ar      1 <0>        -0.1361
     22 C17        -1.1776    2.6631    3.4247 C.ar      1 <0>        -0.0966
     23 C18         0.1258    2.7707    3.8026 C.ar      1 <0>        -0.1042
     24 H2          1.0042    1.8801    0.0026 H         1 <0>         0.0797
     25 H3         -0.5455    1.8639   -0.8728 H         1 <0>         0.0774
     26 H4         -0.5286    1.8543    0.9071 H         1 <0>         0.0840
     27 H5         -0.0069   -0.1318   -2.1360 H         1 <0>         0.1400
     28 H6          0.0276   -2.6161   -2.1400 H         1 <0>         0.1414
     29 H7          0.0549   -3.8115    0.0366 H         1 <0>         0.1324
     30 H8          0.6026   -3.0828    5.7130 H         1 <0>         0.1934
     31 H9          3.0565   -1.5246    4.4175 H         1 <0>         0.1344
     32 H10         3.9649    0.7306    4.7643 H         1 <0>         0.1570
     33 H11        -1.5043   -0.6890    3.1938 H         1 <0>         0.1156
     34 H12        -2.8010    1.3586    2.9198 H         1 <0>         0.1193
     35 H13        -1.7696    3.5573    3.2970 H         1 <0>         0.1254
     36 H14         0.5644    3.7441    3.9650 H         1 <0>         0.1314
@<TRIPOS>BOND
     1    1    2 1
     2    1   24 1
     3    1   25 1
     4    1   26 1
     5    2    7 ar
     6    2    3 ar
     7    3    4 ar
     8    3   27 1
     9    4    5 ar
    10    4   28 1
    11    5    6 ar
    12    5   29 1
    13    6    7 ar
    14    6    8 1
    15    8   12 1
    16    8    9 2
    17    9   10 1
    18    9   14 1
    19   10   11 2
    20   10   30 1
    21   11   12 1
    22   12   13 1
    23   14   19 ar
    24   14   15 ar
    25   15   16 ar
    26   15   31 1
    27   16   17 ar
    28   16   32 1
    29   17   18 ar
    30   18   23 ar
    31   18   19 ar
    32   19   20 ar
    33   20   21 ar
    34   20   33 1
    35   21   22 ar
    36   21   34 1
    37   22   23 ar
    38   22   35 1
    39   23   36 1
@<TRIPOS>MOLECULE
CHEMBL129677__1
   36    39     0     0     0
SMALL
USER_CHARGES

@<TRIPOS>ATOM
      1 C1         -0.0184    1.5028    0.0103 C.3       1 <0>        -0.1072
      2 C2          0.0021   -0.0041    0.0020 C.ar      1 <0>         0.1366
      3 C3          0.0055   -0.6795   -1.2046 C.ar      1 <0>        -0.1631
      4 C4          0.0244   -2.0670   -1.2080 C.ar      1 <0>        -0.0719
      5 C5          0.0391   -2.7306    0.0065 C.ar      1 <0>        -0.1464
      6 C6          0.0346   -1.9865    1.1848 C.ar      1 <0>         0.1949
      7 N1          0.0218   -0.6599    1.1444 N.ar      1 <0>        -0.4516
      8 C7          0.0498   -2.6820    2.4936 C.2       1 <0>         0.1404
      9 C8          0.5405   -2.1401    3.7620 C.2       1 <0>        -0.1849
     10 C9          0.3639   -3.1174    4.6998 C.2       1 <0>         0.0833
     11 N2         -0.1872   -4.1845    4.0924 N.pl3     1 <0>        -0.4660
     12 N3         -0.3803   -3.9012    2.7368 N.2       1 <0>        -0.2639
     13 H1         -0.4183   -5.0196    4.5285 H         1 <0>         0.4464
     14 C10         1.1161   -0.7955    3.9847 C.ar      1 <0>         0.0695
     15 C11         2.4454   -0.6366    4.3581 C.ar      1 <0>        -0.1772
     16 C12         2.9542    0.6396    4.5586 C.ar      1 <0>         0.1303
     17 N4          2.2146    1.7128    4.4063 N.ar      1 <0>        -0.4799
     18 C13         0.9282    1.6367    4.0487 C.ar      1 <0>         0.1312
     19 C14         0.3313    0.3740    3.8184 C.ar      1 <0>        -0.0644
     20 C15        -1.0151    0.3010    3.4386 C.ar      1 <0>        -0.0416
     21 C16        -1.7362    1.4477    3.2891 C.ar      1 <0>        -0.1350
     22 C17        -1.1511    2.6923    3.5093 C.ar      1 <0>        -0.0955
     23 C18         0.1513    2.7979    3.8909 C.ar      1 <0>        -0.1050
     24 H2          1.0042    1.8801    0.0026 H         1 <0>         0.0775
     25 H3         -0.5455    1.8639   -0.8728 H         1 <0>         0.0758
     26 H4         -0.5286    1.8543    0.9071 H         1 <0>         0.0813
     27 H5         -0.0067   -0.1322   -2.1356 H         1 <0>         0.1375
     28 H6          0.0271   -2.6168   -2.1376 H         1 <0>         0.1395
     29 H7          0.0536   -3.8100    0.0406 H         1 <0>         0.1388
     30 H8          0.6220   -3.0464    5.7461 H         1 <0>         0.1874
     31 H9          3.0789   -1.5010    4.4919 H         1 <0>         0.1330
     32 H10         3.9884    0.7522    4.8487 H         1 <0>         0.1565
     33 H11        -1.4790   -0.6586    3.2648 H         1 <0>         0.1172
     34 H12        -2.7741    1.3906    2.9958 H         1 <0>         0.1198
     35 H13        -1.7426    3.5873    3.3842 H         1 <0>         0.1254
     36 H14         0.5899    3.7705    4.0584 H         1 <0>         0.1313
@<TRIPOS>BOND
     1    1    2 1
     2    1   24 1
     3    1   25 1
     4    1   26 1
     5    2    7 ar
     6    2    3 ar
     7    3    4 ar
     8    3   27 1
     9    4    5 ar
    10    4   28 1
    11    5    6 ar
    12    5   29 1
    13    6    7 ar
    14    6    8 1
    15    8   12 2
    16    8    9 1
    17    9   14 1
    18    9   10 2
    19   10   30 1
    20   10   11 1
    21   11   12 1
    22   11   13 1
    23   14   19 ar
    24   14   15 ar
    25   15   16 ar
    26   15   31 1
    27   16   17 ar
    28   16   32 1
    29   17   18 ar
    30   18   23 ar
    31   18   19 ar
    32   19   20 ar
    33   20   21 ar
    34   20   33 1
    35   21   22 ar
    36   21   34 1
    37   22   23 ar
    38   22   35 1
    39   23   36 1
@<TRIPOS>MOLECULE
CHEMBL234655
   59    63     0     0     0
SMALL
USER_CHARGES

@<TRIPOS>ATOM
      1 C1          0.4592    0.5522    3.4877 C.ar      1 <0>        -0.0325
      2 C2          1.6424    1.2675    3.4902 C.ar      1 <0>        -0.1612
      3 C3          2.7740    0.7386    2.8973 C.ar      1 <0>         0.1758
      4 C4          2.7190   -0.5206    2.2957 C.ar      1 <0>        -0.0879
      5 C5          1.5224   -1.2357    2.2973 C.ar      1 <0>        -0.0088
      6 C6          0.3995   -0.6963    2.8927 C.ar      1 <0>        -0.1207
      7 Br1        -1.2242   -1.6656    2.8954 Br        1 <0>        -0.0300
      8 C7          3.9274   -1.0939    1.6579 C.ar      1 <0>         0.4377
      9 N1          5.0127   -0.3471    1.5911 N.ar      1 <0>        -0.5109
     10 C8          6.1348   -0.8082    1.0275 C.ar      1 <0>         0.3329
     11 C9          6.1388   -2.1237    0.4986 C.ar      1 <0>        -0.0511
     12 C10         4.9060   -2.9056    0.6010 C.ar      1 <0>         0.5046
     13 N2          3.8624   -2.3369    1.1874 N.ar      1 <0>        -0.5691
     14 N3          4.8342   -4.1931    0.1083 N.pl3     1 <0>        -0.5977
     15 C11         3.6230   -4.8688    0.1077 C.ar      1 <0>         0.2542
     16 C12         2.4225   -4.1887   -0.0944 C.ar      1 <0>        -0.1804
     17 C13         1.2394   -4.8958   -0.0879 C.ar      1 <0>         0.1473
     18 N4          1.2240   -6.2030    0.1058 N.ar      1 <0>        -0.4926
     19 C14         2.3269   -6.8945    0.3014 C.ar      1 <0>         0.1625
     20 C15         3.5708   -6.2625    0.3052 C.ar      1 <0>        -0.2254
     21 C16         4.8072   -7.0381    0.5181 C.2       1 <0>         0.5714
     22 O1          5.8900   -6.4912    0.4341 O.2       1 <0>        -0.5381
     23 N5          4.7367   -8.3529    0.8056 N.am      1 <0>        -0.7201
     24 C17         5.9648   -9.1233    1.0170 C.3       1 <0>         0.1222
     25 C18         5.6071  -10.5785    1.3258 C.3       1 <0>        -0.1504
     26 C19         6.8897  -11.3830    1.5466 C.3       1 <0>         0.1294
     27 N6          6.5472  -12.7764    1.8423 N.am      1 <0>        -0.6219
     28 C20         6.3080  -13.3020    3.1916 C.3       1 <0>         0.1000
     29 C21         5.5731  -14.6452    2.9864 C.3       1 <0>        -0.1329
     30 C22         6.0451  -15.0498    1.5706 C.3       1 <0>        -0.1568
     31 C23         6.4061  -13.7366    0.9122 C.2       1 <0>         0.5155
     32 O2          6.5498  -13.5742   -0.2811 O.2       1 <0>        -0.5286
     33 N7          7.2389   -2.6105   -0.0675 N.ar      1 <0>        -0.3879
     34 C24         8.3200   -1.8631   -0.1321 C.ar      1 <0>         0.0533
     35 C25         8.3214   -0.5679    0.3868 C.ar      1 <0>         0.1330
     36 N8          7.2435   -0.0671    0.9510 N.ar      1 <0>        -0.4206
     37 F1          3.9297    1.4382    2.8996 F         1 <0>        -0.0985
     38 H1         -0.4211    0.9674    3.9559 H         1 <0>         0.1495
     39 H2          1.6827    2.2412    3.9556 H         1 <0>         0.1544
     40 H3          1.4736   -2.2097    1.8333 H         1 <0>         0.1557
     41 H4          5.6308   -4.6252   -0.2374 H         1 <0>         0.4485
     42 H5          2.4197   -3.1205   -0.2536 H         1 <0>         0.1536
     43 H6          0.3079   -4.3720   -0.2437 H         1 <0>         0.1693
     44 H7          2.2687   -7.9618    0.4561 H         1 <0>         0.1623
     45 H8          3.8730   -8.7891    0.8726 H         1 <0>         0.4026
     46 H9          6.5784   -9.0831    0.1170 H         1 <0>         0.0760
     47 H10         6.5197   -8.7000    1.8543 H         1 <0>         0.0740
     48 H11         4.9935  -10.6187    2.2258 H         1 <0>         0.0743
     49 H12         5.0523  -11.0018    0.4886 H         1 <0>         0.0769
     50 H13         7.5033  -11.3428    0.6466 H         1 <0>         0.0876
     51 H14         7.4445  -10.9597    2.3839 H         1 <0>         0.0842
     52 H15         7.2550  -13.4649    3.7062 H         1 <0>         0.0743
     53 H16         5.6829  -12.6129    3.7594 H         1 <0>         0.0794
     54 H17         5.8885  -15.3796    3.7275 H         1 <0>         0.0927
     55 H18         4.4923  -14.5064    3.0124 H         1 <0>         0.0831
     56 H19         6.9159  -15.7027    1.6309 H         1 <0>         0.1060
     57 H20         5.2381  -15.5381    1.0245 H         1 <0>         0.1029
     58 H21         9.2151   -2.2562   -0.5911 H         1 <0>         0.1872
     59 H22         9.2183    0.0306    0.3250 H         1 <0>         0.1898
@<TRIPOS>BOND
     1    1    6 ar
     2    1    2 ar
     3    1   38 1
     4    2    3 ar
     5    2   39 1
     6    3    4 ar
     7    3   37 1
     8    4    5 ar
     9    4    8 1
    10    5    6 ar
    11    5   40 1
    12    6    7 1
    13    8   13 ar
    14    8    9 ar
    15    9   10 ar
    16   10   36 ar
    17   10   11 ar
    18   11   12 ar
    19   11   33 ar
    20   12   13 ar
    21   12   14 1
    22   14   15 1
    23   14   41 1
    24   15   20 ar
    25   15   16 ar
    26   16   17 ar
    27   16   42 1
    28   17   18 ar
    29   17   43 1
    30   18   19 ar
    31   19   20 ar
    32   19   44 1
    33   20   21 1
    34   21   22 2
    35   21   23 am
    36   23   24 1
    37   23   45 1
    38   24   25 1
    39   24   46 1
    40   24   47 1
    41   25   26 1
    42   25   48 1
    43   25   49 1
    44   26   27 1
    45   26   50 1
    46   26   51 1
    47   27   31 am
    48   27   28 1
    49   28   29 1
    50   28   52 1
    51   28   53 1
    52   29   30 1
    53   29   54 1
    54   29   55 1
    55   30   31 1
    56   30   56 1
    57   30   57 1
    58   31   32 2
    59   33   34 ar
    60   34   35 ar
    61   34   58 1
    62   35   36 ar
    63   35   59 1
@<TRIPOS>MOLECULE
CHEMBL203162
   53    57     0     0     0
SMALL
USER_CHARGES

@<TRIPOS>ATOM
      1 C1         -0.0167    1.3795    0.0096 C.ar      1 <0>        -0.0757
      2 C2          1.1938    2.0587    0.0017 C.ar      1 <0>        -0.1625
      3 C3          2.3745    1.3401   -0.0134 C.ar      1 <0>         0.1040
      4 N1          2.3646    0.0224   -0.0204 N.ar      1 <0>        -0.4553
      5 C4          1.2295   -0.6646   -0.0132 C.ar      1 <0>         0.1904
      6 C5          0.0021   -0.0041    0.0020 C.ar      1 <0>        -0.1395
      7 C6          1.2668   -2.1464   -0.0221 C.2       1 <0>         0.1404
      8 C7          2.3238   -2.9528   -0.5161 C.2       1 <0>        -0.1798
      9 C8          1.9627   -4.2551   -0.3374 C.2       1 <0>         0.0811
     10 N2          0.7439   -4.2707    0.2383 N.pl3     1 <0>        -0.4605
     11 H1          0.2416   -5.0641    0.4810 H         1 <0>         0.4477
     12 N3          0.3283   -2.9479    0.4320 N.2       1 <0>        -0.2695
     13 C9          3.5896   -2.4681   -1.1173 C.ar      1 <0>         0.0617
     14 C10         3.5795   -1.5051   -2.1325 C.ar      1 <0>        -0.1393
     15 C11         4.7772   -1.0783   -2.6680 C.ar      1 <0>         0.1074
     16 N4          5.9251   -1.5635   -2.2377 N.ar      1 <0>        -0.4809
     17 C12         5.9844   -2.4778   -1.2774 C.ar      1 <0>         0.1686
     18 C13         4.8226   -2.9565   -0.6813 C.ar      1 <0>        -0.1546
     19 C14         7.3034   -2.9901   -0.8315 C.ar      1 <0>        -0.0435
     20 C15         7.3762   -3.9543    0.1720 C.ar      1 <0>        -0.1016
     21 C16         8.6059   -4.4277    0.5826 C.ar      1 <0>        -0.1181
     22 C17         9.7647   -3.9465    0.0003 C.ar      1 <0>        -0.0708
     23 C18         9.6983   -2.9891   -0.9958 C.ar      1 <0>        -0.1020
     24 C19         8.4737   -2.5131   -1.4185 C.ar      1 <0>        -0.0789
     25 C20        11.1045   -4.4670    0.4533 C.3       1 <0>         0.0923
     26 N5         11.4746   -5.6360   -0.3556 N.3       1 <0>        -0.5312
     27 C21        10.5649   -6.7624   -0.1008 C.3       1 <0>         0.0137
     28 C22        10.9491   -7.9363   -1.0054 C.3       1 <0>         0.0631
     29 O1         12.3173   -8.2822   -0.7738 O.3       1 <0>        -0.3858
     30 C23        13.2311   -7.2084   -1.0131 C.3       1 <0>         0.0632
     31 C24        12.8701   -6.0271   -0.1086 C.3       1 <0>         0.0168
     32 H2         -0.9522    1.9188    0.0259 H         1 <0>         0.1395
     33 H3          1.2130    3.1385    0.0070 H         1 <0>         0.1388
     34 H4          3.3180    1.8657   -0.0200 H         1 <0>         0.1602
     35 H5         -0.9212   -0.5643    0.0082 H         1 <0>         0.1396
     36 H6          2.5490   -5.1206   -0.6087 H         1 <0>         0.1866
     37 H7          2.6450   -1.1009   -2.4929 H         1 <0>         0.1240
     38 H8          4.7743   -0.3354   -3.4519 H         1 <0>         0.1548
     39 H9          4.8732   -3.6971    0.1031 H         1 <0>         0.1322
     40 H10         6.4721   -4.3302    0.6278 H         1 <0>         0.1249
     41 H11         8.6635   -5.1750    1.3602 H         1 <0>         0.1210
     42 H12        10.6062   -2.6166   -1.4468 H         1 <0>         0.1255
     43 H13         8.4228   -1.7691   -2.1997 H         1 <0>         0.1358
     44 H14        11.8569   -3.6878    0.3315 H         1 <0>         0.0867
     45 H15        11.0464   -4.7551    1.5029 H         1 <0>         0.0457
     46 H16        10.6450   -7.0659    0.9431 H         1 <0>         0.0426
     47 H17         9.5403   -6.4583   -0.3145 H         1 <0>         0.0914
     48 H18        10.3138   -8.7928   -0.7796 H         1 <0>         0.0979
     49 H19        10.8176   -7.6499   -2.0488 H         1 <0>         0.0602
     50 H20        14.2463   -7.5385   -0.7928 H         1 <0>         0.0991
     51 H21        13.1660   -6.9009   -2.0568 H         1 <0>         0.0607
     52 H22        13.5281   -5.1863   -0.3280 H         1 <0>         0.0880
     53 H23        12.9869   -6.3189    0.9352 H         1 <0>         0.0440
@<TRIPOS>BOND
     1    1    6 ar
     2    1    2 ar
     3    1   32 1
     4    2    3 ar
     5    2   33 1
     6    3    4 ar
     7    3   34 1
     8    4    5 ar
     9    5    6 ar
    10    5    7 1
    11    6   35 1
    12    7   12 2
    13    7    8 1
    14    8    9 2
    15    8   13 1
    16    9   10 1
    17    9   36 1
    18   10   11 1
    19   10   12 1
    20   13   18 ar
    21   13   14 ar
    22   14   15 ar
    23   14   37 1
    24   15   16 ar
    25   15   38 1
    26   16   17 ar
    27   17   18 ar
    28   17   19 1
    29   18   39 1
    30   19   24 ar
    31   19   20 ar
    32   20   21 ar
    33   20   40 1
    34   21   22 ar
    35   21   41 1
    36   22   23 ar
    37   22   25 1
    38   23   24 ar
    39   23   42 1
    40   24   43 1
    41   25   26 1
    42   25   44 1
    43   25   45 1
    44   26   31 1
    45   26   27 1
    46   27   28 1
    47   27   46 1
    48   27   47 1
    49   28   29 1
    50   28   48 1
    51   28   49 1
    52   29   30 1
    53   30   31 1
    54   30   50 1
    55   30   51 1
    56   31   52 1
    57   31   53 1
@<TRIPOS>MOLECULE
CHEMBL203162__1
   53    57     0     0     0
SMALL
USER_CHARGES

@<TRIPOS>ATOM
      1 C1         -0.0167    1.3791    0.0096 C.ar      1 <0>        -0.0687
      2 C2          1.1939    2.0588    0.0017 C.ar      1 <0>        -0.1605
      3 C3          2.3757    1.3409   -0.0134 C.ar      1 <0>         0.1104
      4 N1          2.3675    0.0237   -0.0209 N.ar      1 <0>        -0.4493
      5 C4          1.2315   -0.6652   -0.0137 C.ar      1 <0>         0.1745
      6 C5          0.0021   -0.0041    0.0020 C.ar      1 <0>        -0.1581
      7 C6          1.2697   -2.1418   -0.0230 C.2       1 <0>         0.1450
      8 C7          2.2978   -2.9388   -0.5099 C.2       1 <0>        -0.1647
      9 C8          1.9145   -4.2780   -0.3185 C.2       1 <0>         0.0695
     10 N2          0.7361   -4.2963    0.2452 N.2       1 <0>        -0.2701
     11 H1         -0.5337   -2.7121    0.8551 H         1 <0>         0.4431
     12 N3          0.3057   -2.9803    0.4497 N.pl3     1 <0>        -0.4608
     13 C9          3.5636   -2.4655   -1.1182 C.ar      1 <0>         0.0608
     14 C10         3.5560   -1.5051   -2.1365 C.ar      1 <0>        -0.1425
     15 C11         4.7544   -1.0889   -2.6786 C.ar      1 <0>         0.1072
     16 N4          5.9007   -1.5815   -2.2522 N.ar      1 <0>        -0.4807
     17 C12         5.9578   -2.4934   -1.2895 C.ar      1 <0>         0.1697
     18 C13         4.7954   -2.9618   -0.6865 C.ar      1 <0>        -0.1511
     19 C14         7.2751   -3.0141   -0.8484 C.ar      1 <0>        -0.0443
     20 C15         7.3457   -3.9759    0.1576 C.ar      1 <0>        -0.1008
     21 C16         8.5739   -4.4567    0.5641 C.ar      1 <0>        -0.1179
     22 C17         9.7334   -3.9854   -0.0248 C.ar      1 <0>        -0.0705
     23 C18         9.6692   -3.0308   -1.0238 C.ar      1 <0>        -0.1025
     24 C19         8.4461   -2.5475   -1.4425 C.ar      1 <0>        -0.0788
     25 C20        11.0715   -4.5135    0.4240 C.3       1 <0>         0.0923
     26 N5         11.4301   -5.6877   -0.3827 N.3       1 <0>        -0.5311
     27 C21        10.5138   -6.8070   -0.1201 C.3       1 <0>         0.0135
     28 C22        10.8859   -7.9865   -1.0225 C.3       1 <0>         0.0631
     29 O1         12.2527   -8.3411   -0.7958 O.3       1 <0>        -0.3858
     30 C23        13.1728   -7.2744   -1.0426 C.3       1 <0>         0.0633
     31 C24        12.8239   -6.0877   -0.1404 C.3       1 <0>         0.0168
     32 H2         -0.9523    1.9183    0.0259 H         1 <0>         0.1417
     33 H3          1.2124    3.1386    0.0070 H         1 <0>         0.1417
     34 H4          3.3185    1.8676   -0.0196 H         1 <0>         0.1634
     35 H5         -0.9212   -0.5644    0.0078 H         1 <0>         0.1334
     36 H6          2.4963   -5.1458   -0.5921 H         1 <0>         0.1930
     37 H7          2.6230   -1.0950   -2.4938 H         1 <0>         0.1224
     38 H8          4.7535   -0.3484   -3.4647 H         1 <0>         0.1543
     39 H9          4.8444   -3.7002    0.1001 H         1 <0>         0.1343
     40 H10         6.4410   -4.3440    0.6186 H         1 <0>         0.1260
     41 H11         8.6297   -5.2020    1.3436 H         1 <0>         0.1214
     42 H12        10.5777   -2.6661   -1.4800 H         1 <0>         0.1254
     43 H13         8.3969   -1.8057   -2.2259 H         1 <0>         0.1355
     44 H14        11.8288   -3.7400    0.2963 H         1 <0>         0.0865
     45 H15        11.0161   -4.7978    1.4748 H         1 <0>         0.0457
     46 H16        10.5963   -7.1076    0.9243 H         1 <0>         0.0428
     47 H17         9.4903   -6.4966   -0.3304 H         1 <0>         0.0917
     48 H18        10.2458   -8.8379   -0.7911 H         1 <0>         0.0983
     49 H19        10.7518   -7.7026   -2.0663 H         1 <0>         0.0603
     50 H20        14.1866   -7.6107   -0.8257 H         1 <0>         0.0989
     51 H21        13.1052   -6.9698   -2.0870 H         1 <0>         0.0606
     52 H22        13.4867   -5.2521   -0.3655 H         1 <0>         0.0877
     53 H23        12.9433   -6.3768    0.9038 H         1 <0>         0.0440
@<TRIPOS>BOND
     1    1    6 ar
     2    1    2 ar
     3    1   32 1
     4    2    3 ar
     5    2   33 1
     6    3    4 ar
     7    3   34 1
     8    4    5 ar
     9    5    6 ar
    10    5    7 1
    11    6   35 1
    12    7    8 2
    13    7   12 1
    14    8    9 1
    15    8   13 1
    16    9   10 2
    17    9   36 1
    18   10   12 1
    19   11   12 1
    20   13   18 ar
    21   13   14 ar
    22   14   15 ar
    23   14   37 1
    24   15   16 ar
    25   15   38 1
    26   16   17 ar
    27   17   18 ar
    28   17   19 1
    29   18   39 1
    30   19   24 ar
    31   19   20 ar
    32   20   21 ar
    33   20   40 1
    34   21   22 ar
    35   21   41 1
    36   22   23 ar
    37   22   25 1
    38   23   24 ar
    39   23   42 1
    40   24   43 1
    41   25   26 1
    42   25   44 1
    43   25   45 1
    44   26   31 1
    45   26   27 1
    46   27   28 1
    47   27   46 1
    48   27   47 1
    49   28   29 1
    50   28   48 1
    51   28   49 1
    52   29   30 1
    53   30   31 1
    54   30   50 1
    55   30   51 1
    56   31   52 1
    57   31   53 1
@<TRIPOS>MOLECULE
CHEMBL204211
   57    61     0     0     0
SMALL
USER_CHARGES

@<TRIPOS>ATOM
      1 C1         -0.0167    1.3795    0.0096 C.ar      1 <0>        -0.0733
      2 C2          1.1938    2.0587    0.0017 C.ar      1 <0>        -0.1590
      3 C3          2.3745    1.3401   -0.0134 C.ar      1 <0>         0.1022
      4 N1          2.3646    0.0224   -0.0204 N.ar      1 <0>        -0.4608
      5 C4          1.2295   -0.6646   -0.0132 C.ar      1 <0>         0.1854
      6 C5          0.0021   -0.0041    0.0020 C.ar      1 <0>        -0.1365
      7 C6          1.2668   -2.1464   -0.0221 C.2       1 <0>         0.1441
      8 C7          2.3238   -2.9528   -0.5161 C.2       1 <0>        -0.1895
      9 C8          1.9627   -4.2551   -0.3374 C.2       1 <0>         0.0838
     10 N2          0.7439   -4.2707    0.2383 N.pl3     1 <0>        -0.4580
     11 H1          0.2416   -5.0641    0.4810 H         1 <0>         0.4495
     12 N3          0.3283   -2.9479    0.4320 N.2       1 <0>        -0.2645
     13 C9          3.5896   -2.4681   -1.1173 C.ar      1 <0>         0.0677
     14 C10         3.5795   -1.5051   -2.1325 C.ar      1 <0>        -0.1232
     15 C11         4.7772   -1.0783   -2.6680 C.ar      1 <0>         0.1094
     16 N4          5.9251   -1.5635   -2.2377 N.ar      1 <0>        -0.4762
     17 C12         5.9844   -2.4778   -1.2774 C.ar      1 <0>         0.1391
     18 C13         4.8226   -2.9565   -0.6813 C.ar      1 <0>        -0.1462
     19 C14         7.3034   -2.9901   -0.8315 C.ar      1 <0>         0.0082
     20 C15         7.3762   -3.9543    0.1720 C.ar      1 <0>        -0.1052
     21 C16         8.6059   -4.4277    0.5826 C.ar      1 <0>        -0.0913
     22 C17         9.7647   -3.9465    0.0003 C.ar      1 <0>        -0.1678
     23 C18         9.6983   -2.9891   -0.9958 C.ar      1 <0>        -0.0930
     24 C19         8.4737   -2.5131   -1.4185 C.ar      1 <0>        -0.0824
     25 C20        11.1045   -4.4670    0.4533 C.3       1 <0>         0.0437
     26 N5         11.4746   -5.6360   -0.3556 N.4       1 <0>        -0.5054
     27 C21        12.7806   -6.1433    0.0859 C.3       1 <0>         0.0228
     28 C22        13.8623   -5.0999   -0.2101 C.3       1 <0>        -0.1797
     29 C23        15.2291   -5.6682    0.1807 C.3       1 <0>         0.0618
     30 O1         15.4605   -6.8834   -0.5349 O.3       1 <0>        -0.3684
     31 C24        14.5070   -7.9121   -0.2615 C.3       1 <0>         0.0622
     32 C25        13.1112   -7.4339   -0.6700 C.3       1 <0>        -0.1794
     33 H2         -0.9522    1.9188    0.0259 H         1 <0>         0.1419
     34 H3          1.2130    3.1385    0.0070 H         1 <0>         0.1406
     35 H4          3.3180    1.8657   -0.0200 H         1 <0>         0.1601
     36 H5         -0.9212   -0.5643    0.0082 H         1 <0>         0.1411
     37 H6          2.5490   -5.1206   -0.6087 H         1 <0>         0.1858
     38 H7          2.6450   -1.1009   -2.4929 H         1 <0>         0.1303
     39 H8          4.7743   -0.3354   -3.4519 H         1 <0>         0.1606
     40 H9          4.8732   -3.6971    0.1031 H         1 <0>         0.1334
     41 H10         6.4721   -4.3302    0.6278 H         1 <0>         0.1382
     42 H11         8.6635   -5.1750    1.3602 H         1 <0>         0.1333
     43 H12        10.6062   -2.6166   -1.4468 H         1 <0>         0.1334
     44 H13         8.4228   -1.7691   -2.1997 H         1 <0>         0.1480
     45 H14        11.8569   -3.6878    0.3315 H         1 <0>         0.1381
     46 H15        11.0464   -4.7551    1.5029 H         1 <0>         0.1375
     47 H16        10.7780   -6.3572   -0.2429 H         1 <0>         0.4278
     48 H17        12.7503   -6.3453    1.1566 H         1 <0>         0.1414
     49 H18        13.8574   -4.8618   -1.2737 H         1 <0>         0.0977
     50 H19        13.6649   -4.1967    0.3672 H         1 <0>         0.1007
     51 H20        16.0073   -4.9465   -0.0674 H         1 <0>         0.1164
     52 H21        15.2468   -5.8683    1.2520 H         1 <0>         0.0661
     53 H22        14.7650   -8.8068   -0.8281 H         1 <0>         0.1166
     54 H23        14.5152   -8.1415    0.8041 H         1 <0>         0.0661
     55 H24        12.3766   -8.1999   -0.4216 H         1 <0>         0.1009
     56 H25        13.0912   -7.2429   -1.7429 H         1 <0>         0.0973
     57 H26        11.5284   -5.3693   -1.3273 H         1 <0>         0.4268
@<TRIPOS>BOND
     1    1    6 ar
     2    1    2 ar
     3    1   33 1
     4    2    3 ar
     5    2   34 1
     6    3    4 ar
     7    3   35 1
     8    4    5 ar
     9    5    6 ar
    10    5    7 1
    11    6   36 1
    12    7   12 2
    13    7    8 1
    14    8    9 2
    15    8   13 1
    16    9   10 1
    17    9   37 1
    18   10   11 1
    19   10   12 1
    20   13   18 ar
    21   13   14 ar
    22   14   15 ar
    23   14   38 1
    24   15   16 ar
    25   15   39 1
    26   16   17 ar
    27   17   18 ar
    28   17   19 1
    29   18   40 1
    30   19   24 ar
    31   19   20 ar
    32   20   21 ar
    33   20   41 1
    34   21   22 ar
    35   21   42 1
    36   22   23 ar
    37   22   25 1
    38   23   24 ar
    39   23   43 1
    40   24   44 1
    41   25   26 1
    42   25   45 1
    43   25   46 1
    44   26   27 1
    45   26   47 1
    46   26   57 1
    47   27   32 1
    48   27   28 1
    49   27   48 1
    50   28   29 1
    51   28   49 1
    52   28   50 1
    53   29   30 1
    54   29   51 1
    55   29   52 1
    56   30   31 1
    57   31   32 1
    58   31   53 1
    59   31   54 1
    60   32   55 1
    61   32   56 1
@<TRIPOS>MOLECULE
CHEMBL204211__1
   57    61     0     0     0
SMALL
USER_CHARGES

@<TRIPOS>ATOM
      1 C1         -0.0167    1.3791    0.0096 C.ar      1 <0>        -0.0665
      2 C2          1.1939    2.0588    0.0017 C.ar      1 <0>        -0.1562
      3 C3          2.3757    1.3409   -0.0134 C.ar      1 <0>         0.1085
      4 N1          2.3675    0.0237   -0.0209 N.ar      1 <0>        -0.4541
      5 C4          1.2315   -0.6652   -0.0137 C.ar      1 <0>         0.1681
      6 C5          0.0021   -0.0041    0.0020 C.ar      1 <0>        -0.1544
      7 C6          1.2697   -2.1418   -0.0230 C.2       1 <0>         0.1547
      8 C7          2.2978   -2.9388   -0.5099 C.2       1 <0>        -0.1780
      9 C8          1.9145   -4.2780   -0.3185 C.2       1 <0>         0.0693
     10 N2          0.7361   -4.2963    0.2452 N.2       1 <0>        -0.2668
     11 H1         -0.5337   -2.7121    0.8551 H         1 <0>         0.4456
     12 N3          0.3057   -2.9803    0.4497 N.pl3     1 <0>        -0.4572
     13 C9          3.5636   -2.4655   -1.1182 C.ar      1 <0>         0.0676
     14 C10         3.5560   -1.5051   -2.1365 C.ar      1 <0>        -0.1268
     15 C11         4.7544   -1.0889   -2.6786 C.ar      1 <0>         0.1091
     16 N4          5.9007   -1.5815   -2.2522 N.ar      1 <0>        -0.4763
     17 C12         5.9578   -2.4934   -1.2895 C.ar      1 <0>         0.1401
     18 C13         4.7954   -2.9618   -0.6865 C.ar      1 <0>        -0.1429
     19 C14         7.2751   -3.0141   -0.8484 C.ar      1 <0>         0.0075
     20 C15         7.3457   -3.9759    0.1576 C.ar      1 <0>        -0.1044
     21 C16         8.5739   -4.4567    0.5641 C.ar      1 <0>        -0.0911
     22 C17         9.7334   -3.9854   -0.0248 C.ar      1 <0>        -0.1676
     23 C18         9.6692   -3.0308   -1.0238 C.ar      1 <0>        -0.0934
     24 C19         8.4461   -2.5475   -1.4425 C.ar      1 <0>        -0.0824
     25 C20        11.0715   -4.5135    0.4240 C.3       1 <0>         0.0438
     26 N5         11.4301   -5.6877   -0.3827 N.4       1 <0>        -0.5055
     27 C21        12.7345   -6.2026    0.0548 C.3       1 <0>         0.0228
     28 C22        13.8220   -5.1676   -0.2493 C.3       1 <0>        -0.1797
     29 C23        15.1866   -5.7441    0.1374 C.3       1 <0>         0.0618
     30 O1         15.4064   -6.9631   -0.5752 O.3       1 <0>        -0.3685
     31 C24        14.4471   -7.9843   -0.2942 C.3       1 <0>         0.0623
     32 C25        13.0529   -7.4979   -0.6982 C.3       1 <0>        -0.1795
     33 H2         -0.9523    1.9183    0.0259 H         1 <0>         0.1443
     34 H3          1.2124    3.1386    0.0070 H         1 <0>         0.1437
     35 H4          3.3185    1.8676   -0.0196 H         1 <0>         0.1635
     36 H5         -0.9212   -0.5644    0.0078 H         1 <0>         0.1351
     37 H6          2.4963   -5.1458   -0.5921 H         1 <0>         0.1919
     38 H7          2.6230   -1.0950   -2.4938 H         1 <0>         0.1287
     39 H8          4.7535   -0.3484   -3.4647 H         1 <0>         0.1601
     40 H9          4.8444   -3.7002    0.1001 H         1 <0>         0.1354
     41 H10         6.4410   -4.3440    0.6186 H         1 <0>         0.1392
     42 H11         8.6297   -5.2020    1.3436 H         1 <0>         0.1337
     43 H12        10.5777   -2.6661   -1.4800 H         1 <0>         0.1332
     44 H13         8.3969   -1.8057   -2.2259 H         1 <0>         0.1477
     45 H14        11.8288   -3.7400    0.2963 H         1 <0>         0.1379
     46 H15        11.0161   -4.7978    1.4748 H         1 <0>         0.1375
     47 H16        10.7291   -6.4038   -0.2645 H         1 <0>         0.4280
     48 H17        12.7075   -6.4009    1.1263 H         1 <0>         0.1415
     49 H18        13.8141   -4.9330   -1.3137 H         1 <0>         0.0977
     50 H19        13.6333   -4.2612    0.3259 H         1 <0>         0.1006
     51 H20        15.9686   -5.0285   -0.1165 H         1 <0>         0.1163
     52 H21        15.2076   -5.9407    1.2093 H         1 <0>         0.0660
     53 H22        14.6965   -8.8826   -0.8590 H         1 <0>         0.1166
     54 H23        14.4584   -8.2103    0.7720 H         1 <0>         0.0661
     55 H24        12.3141   -8.2580   -0.4441 H         1 <0>         0.1011
     56 H25        13.0294   -7.3103   -1.7717 H         1 <0>         0.0973
     57 H26        11.4814   -5.4246   -1.3554 H         1 <0>         0.4268
@<TRIPOS>BOND
     1    1    6 ar
     2    1    2 ar
     3    1   33 1
     4    2    3 ar
     5    2   34 1
     6    3    4 ar
     7    3   35 1
     8    4    5 ar
     9    5    6 ar
    10    5    7 1
    11    6   36 1
    12    7    8 2
    13    7   12 1
    14    8    9 1
    15    8   13 1
    16    9   10 2
    17    9   37 1
    18   10   12 1
    19   11   12 1
    20   13   18 ar
    21   13   14 ar
    22   14   15 ar
    23   14   38 1
    24   15   16 ar
    25   15   39 1
    26   16   17 ar
    27   17   18 ar
    28   17   19 1
    29   18   40 1
    30   19   24 ar
    31   19   20 ar
    32   20   21 ar
    33   20   41 1
    34   21   22 ar
    35   21   42 1
    36   22   23 ar
    37   22   25 1
    38   23   24 ar
    39   23   43 1
    40   24   44 1
    41   25   26 1
    42   25   45 1
    43   25   46 1
    44   26   27 1
    45   26   47 1
    46   26   57 1
    47   27   32 1
    48   27   28 1
    49   27   48 1
    50   28   29 1
    51   28   49 1
    52   28   50 1
    53   29   30 1
    54   29   51 1
    55   29   52 1
    56   30   31 1
    57   31   32 1
    58   31   53 1
    59   31   54 1
    60   32   55 1
    61   32   56 1
@<TRIPOS>MOLECULE
CHEMBL1421
   60    63     0     0     0
SMALL
USER_CHARGES

@<TRIPOS>ATOM
      1 C1         -2.0700    1.6928    0.2333 C.3       1 <0>        -0.1170
      2 C2         -1.6482    0.2604    0.0301 C.ar      1 <0>        -0.0813
      3 C3         -1.8479   -0.3525   -1.1919 C.ar      1 <0>        -0.1034
      4 C4         -1.4615   -1.6665   -1.3798 C.ar      1 <0>        -0.0990
      5 C5         -0.8738   -2.3725   -0.3459 C.ar      1 <0>        -0.1046
      6 C6         -0.6714   -1.7660    0.8791 C.ar      1 <0>        -0.0220
      7 C7         -1.0534   -0.4428    1.0688 C.ar      1 <0>         0.1347
      8 N1         -0.8441    0.1769    2.3055 N.am      1 <0>        -0.6659
      9 C8         -1.2819   -0.4110    3.4365 C.2       1 <0>         0.6018
     10 O1         -1.7689   -1.5261    3.3939 O.2       1 <0>        -0.4722
     11 C9         -1.1720    0.2905    4.7149 C.2       1 <0>        -0.2635
     12 C10        -1.5472   -0.1201    5.9866 C.2       1 <0>         0.1512
     13 N2         -1.3262    0.7270    6.9599 N.2       1 <0>        -0.5510
     14 C11        -0.7756    1.9070    6.7361 C.2       1 <0>         0.2513
     15 S1         -0.5107    1.9100    5.0742 S.3       1 <0>         0.2445
     16 N3         -0.4817    2.8997    7.6498 N.pl3     1 <0>        -0.5870
     17 C12        -0.6908    2.6801    9.0050 C.ar      1 <0>         0.4543
     18 C13        -1.0534    1.4192    9.4679 C.ar      1 <0>        -0.2926
     19 C14        -1.2512    1.2508   10.8352 C.ar      1 <0>         0.4935
     20 N4         -1.0875    2.2952   11.6453 N.ar      1 <0>        -0.5328
     21 C15        -0.7435    3.4737   11.1677 C.ar      1 <0>         0.4541
     22 N5         -0.5417    3.6719    9.8809 N.ar      1 <0>        -0.5672
     23 C16        -0.5694    4.6273   12.1217 C.3       1 <0>        -0.1251
     24 N6         -1.6138    0.0143   11.3464 N.pl3     1 <0>        -0.5370
     25 C17        -2.0559   -0.1253   12.7422 C.3       1 <0>         0.1090
     26 C18        -3.3866   -0.8852   12.7576 C.3       1 <0>         0.0383
     27 N7         -3.2335   -2.1493   12.0251 N.3       1 <0>        -0.5289
     28 C19        -2.9165   -1.9105   10.6107 C.3       1 <0>         0.0343
     29 C20        -1.5725   -1.1917   10.5056 C.3       1 <0>         0.1057
     30 C21        -4.4334   -2.9856   12.1619 C.3       1 <0>         0.0545
     31 C22        -4.1483   -4.3816   11.6043 C.3       1 <0>         0.0776
     32 O2         -3.1500   -5.0191   12.4038 O.3       1 <0>        -0.5606
     33 Cl1         0.0658   -2.6526    2.1768 Cl        1 <0>        -0.0453
     34 H1         -1.2464    2.3553   -0.0328 H         1 <0>         0.0773
     35 H2         -2.9308    1.9112   -0.3987 H         1 <0>         0.0785
     36 H3         -2.3379    1.8478    1.2784 H         1 <0>         0.0640
     37 H4         -2.3069    0.1956   -2.0014 H         1 <0>         0.1372
     38 H5         -1.6193   -2.1430   -2.3361 H         1 <0>         0.1391
     39 H6         -0.5731   -3.3989   -0.4959 H         1 <0>         0.1403
     40 H7         -0.3838    1.0296    2.3489 H         1 <0>         0.4083
     41 H8         -1.9972   -1.0858    6.1634 H         1 <0>         0.2027
     42 H9         -0.1293    3.7505    7.3451 H         1 <0>         0.4460
     43 H10        -1.1784    0.5927    8.7841 H         1 <0>         0.2218
     44 H11         0.4644    4.6619   12.4652 H         1 <0>         0.1245
     45 H12        -0.8146    5.5596   11.6130 H         1 <0>         0.1071
     46 H13        -1.2322    4.4948   12.9768 H         1 <0>         0.1273
     47 H14        -1.3096   -0.6823   13.3087 H         1 <0>         0.0989
     48 H15        -2.1929    0.8619   13.1834 H         1 <0>         0.1094
     49 H16        -3.6740   -1.0944   13.7880 H         1 <0>         0.1036
     50 H17        -4.1569   -0.2794   12.2806 H         1 <0>         0.0428
     51 H18        -2.8631   -2.8634   10.0841 H         1 <0>         0.1043
     52 H19        -3.6935   -1.2904   10.1636 H         1 <0>         0.0450
     53 H20        -1.3900   -0.9091    9.4688 H         1 <0>         0.1029
     54 H21        -0.7788   -1.8532   10.8529 H         1 <0>         0.1042
     55 H22        -4.7041   -3.0633   13.2149 H         1 <0>         0.0912
     56 H23        -5.2561   -2.5340   11.6075 H         1 <0>         0.0533
     57 H24        -5.0627   -4.9745   11.6240 H         1 <0>         0.0547
     58 H25        -3.7921   -4.2970   10.5776 H         1 <0>         0.0454
     59 H26        -2.9188   -5.9101   12.1076 H         1 <0>         0.3805
     60 H27        -0.2852    4.5531    9.5669 H         1 <0>         0.4414
@<TRIPOS>BOND
     1    1    2 1
     2    1   34 1
     3    1   35 1
     4    1   36 1
     5    2    7 ar
     6    2    3 ar
     7    3    4 ar
     8    3   37 1
     9    4    5 ar
    10    4   38 1
    11    5    6 ar
    12    5   39 1
    13    6    7 ar
    14    6   33 1
    15    7    8 1
    16    8    9 am
    17    8   40 1
    18    9   10 2
    19    9   11 1
    20   11   15 1
    21   11   12 2
    22   12   13 1
    23   12   41 1
    24   13   14 2
    25   14   15 1
    26   14   16 1
    27   16   17 1
    28   16   42 1
    29   17   22 ar
    30   17   18 ar
    31   18   19 ar
    32   18   43 1
    33   19   20 ar
    34   19   24 1
    35   20   21 ar
    36   21   22 ar
    37   21   23 1
    38   22   60 1
    39   23   44 1
    40   23   45 1
    41   23   46 1
    42   24   29 1
    43   24   25 1
    44   25   26 1
    45   25   47 1
    46   25   48 1
    47   26   27 1
    48   26   49 1
    49   26   50 1
    50   27   28 1
    51   27   30 1
    52   28   29 1
    53   28   51 1
    54   28   52 1
    55   29   53 1
    56   29   54 1
    57   30   31 1
    58   30   55 1
    59   30   56 1
    60   31   32 1
    61   31   57 1
    62   31   58 1
    63   32   59 1
@<TRIPOS>MOLECULE
CHEMBL1421__1
   59    62     0     0     0
SMALL
USER_CHARGES

@<TRIPOS>ATOM
      1 C1          3.3957    6.6541    1.8846 C.3       1 <0>        -0.1166
      2 C2          2.6765    7.9747    1.9828 C.ar      1 <0>        -0.0851
      3 C3          2.9953    9.0018    1.1154 C.ar      1 <0>        -0.1055
      4 C4          2.3363   10.2139    1.2044 C.ar      1 <0>        -0.1070
      5 C5          1.3559   10.4031    2.1614 C.ar      1 <0>        -0.1064
      6 C6          1.0323    9.3804    3.0324 C.ar      1 <0>        -0.0243
      7 C7          1.6890    8.1585    2.9411 C.ar      1 <0>         0.1460
      8 N1          1.3596    7.1184    3.8167 N.am      1 <0>        -0.6734
      9 C8          1.3468    7.3357    5.1468 C.2       1 <0>         0.6131
     10 O1          1.5224    8.4593    5.5818 O.2       1 <0>        -0.4899
     11 C9          1.1219    6.2221    6.0675 C.2       1 <0>        -0.3092
     12 C10         1.0631    6.2164    7.4543 C.2       1 <0>         0.1722
     13 N2          0.8449    5.0572    8.0222 N.2       1 <0>        -0.5179
     14 C11         0.6902    3.9568    7.3075 C.2       1 <0>         0.3122
     15 S1          0.8391    4.4936    5.7194 S.3       1 <0>         0.1339
     16 N3          0.4559    2.6723    7.7567 N.pl3     1 <0>        -0.5904
     17 C12         0.2485    2.4367    9.1094 C.ar      1 <0>         0.4415
     18 C13        -0.0983    1.1669    9.5596 C.ar      1 <0>        -0.3413
     19 C14        -0.2952    0.9826   10.9250 C.ar      1 <0>         0.4685
     20 N4         -0.1457    2.0210   11.7454 N.ar      1 <0>        -0.5922
     21 C15         0.1836    3.2084   11.2797 C.ar      1 <0>         0.3947
     22 N5          0.3840    3.4217    9.9951 N.ar      1 <0>        -0.5460
     23 C16         0.3420    4.3547   12.2451 C.3       1 <0>        -0.0834
     24 N6         -0.6424   -0.2634   11.4237 N.pl3     1 <0>        -0.5966
     25 C17        -1.0590   -0.4265   12.8248 C.3       1 <0>         0.1301
     26 C18        -2.3852   -1.1937   12.8521 C.3       1 <0>         0.0401
     27 N7         -2.2386   -2.4458   12.0979 N.3       1 <0>        -0.5276
     28 C19        -1.9479   -2.1841   10.6820 C.3       1 <0>         0.0364
     29 C20        -0.6096   -1.4564   10.5641 C.3       1 <0>         0.1269
     30 C21        -3.4316   -3.2906   12.2431 C.3       1 <0>         0.0538
     31 C22        -3.1492   -4.6764   11.6595 C.3       1 <0>         0.0792
     32 O2         -2.1337   -5.3205   12.4316 O.3       1 <0>        -0.5589
     33 Cl1        -0.1979    9.6184    4.2338 Cl        1 <0>        -0.0432
     34 H1          2.8613    5.9996    1.1960 H         1 <0>         0.0754
     35 H2          4.4087    6.8185    1.5172 H         1 <0>         0.0754
     36 H3          3.4374    6.1889    2.8695 H         1 <0>         0.0676
     37 H4          3.7606    8.8577    0.3671 H         1 <0>         0.1337
     38 H5          2.5880   11.0150    0.5252 H         1 <0>         0.1350
     39 H6          0.8430   11.3512    2.2282 H         1 <0>         0.1371
     40 H7          1.1404    6.2407    3.4666 H         1 <0>         0.4085
     41 H8          1.1907    7.1190    8.0333 H         1 <0>         0.1884
     42 H9          0.4362    1.9344    7.1273 H         1 <0>         0.4386
     43 H10        -0.2121    0.3456    8.8676 H         1 <0>         0.1413
     44 H11         1.3750    4.3992   12.5900 H         1 <0>         0.0870
     45 H12         0.0853    5.2888   11.7453 H         1 <0>         0.0890
     46 H13        -0.3198    4.2054   13.0982 H         1 <0>         0.0846
     47 H14        -0.3000   -0.9879   13.3695 H         1 <0>         0.0744
     48 H15        -1.1933    0.5532   13.2832 H         1 <0>         0.1008
     49 H16        -2.6534   -1.4200   13.8841 H         1 <0>         0.0903
     50 H17        -3.1670   -0.5850   12.3979 H         1 <0>         0.0372
     51 H18        -1.8989   -3.1286   10.1401 H         1 <0>         0.0905
     52 H19        -2.7358   -1.5615   10.2580 H         1 <0>         0.0380
     53 H20        -0.4469   -1.1573    9.5286 H         1 <0>         0.0877
     54 H21         0.1935   -2.1187   10.8874 H         1 <0>         0.0802
     55 H22        -3.6832   -3.3855   13.2994 H         1 <0>         0.0861
     56 H23        -4.2663   -2.8352   11.7102 H         1 <0>         0.0487
     57 H24        -4.0601   -5.2745   11.6863 H         1 <0>         0.0498
     58 H25        -2.8116   -4.5745   10.6281 H         1 <0>         0.0451
     59 H26        -1.9032   -6.2057   12.1180 H         1 <0>         0.3762
@<TRIPOS>BOND
     1    1    2 1
     2    1   34 1
     3    1   35 1
     4    1   36 1
     5    2    7 ar
     6    2    3 ar
     7    3    4 ar
     8    3   37 1
     9    4    5 ar
    10    4   38 1
    11    5    6 ar
    12    5   39 1
    13    6    7 ar
    14    6   33 1
    15    7    8 1
    16    8    9 am
    17    8   40 1
    18    9   10 2
    19    9   11 1
    20   11   15 1
    21   11   12 2
    22   12   13 1
    23   12   41 1
    24   13   14 2
    25   14   15 1
    26   14   16 1
    27   16   17 1
    28   16   42 1
    29   17   22 ar
    30   17   18 ar
    31   18   19 ar
    32   18   43 1
    33   19   20 ar
    34   19   24 1
    35   20   21 ar
    36   21   22 ar
    37   21   23 1
    38   23   44 1
    39   23   45 1
    40   23   46 1
    41   24   29 1
    42   24   25 1
    43   25   26 1
    44   25   47 1
    45   25   48 1
    46   26   27 1
    47   26   49 1
    48   26   50 1
    49   27   28 1
    50   27   30 1
    51   28   29 1
    52   28   51 1
    53   28   52 1
    54   29   53 1
    55   29   54 1
    56   30   31 1
    57   30   55 1
    58   30   56 1
    59   31   32 1
    60   31   57 1
    61   31   58 1
    62   32   59 1
@<TRIPOS>MOLECULE
CHEMBL1421__2
   60    63     0     0     0
SMALL
USER_CHARGES

@<TRIPOS>ATOM
      1 C1          3.2739    6.6585    1.8418 C.3       1 <0>        -0.1168
      2 C2          2.5810    7.9910    1.9663 C.ar      1 <0>        -0.0823
      3 C3          2.8983    9.0189    1.0995 C.ar      1 <0>        -0.1038
      4 C4          2.2635   10.2419    1.2126 C.ar      1 <0>        -0.1008
      5 C5          1.3088   10.4411    2.1933 C.ar      1 <0>        -0.1049
      6 C6          0.9869    9.4175    3.0639 C.ar      1 <0>        -0.0226
      7 C7          1.6192    8.1849    2.9486 C.ar      1 <0>         0.1373
      8 N1          1.2913    7.1440    3.8238 N.am      1 <0>        -0.6678
      9 C8          1.3128    7.3511    5.1554 C.2       1 <0>         0.6036
     10 O1          1.5184    8.4680    5.5945 O.2       1 <0>        -0.4759
     11 C9          1.0891    6.2346    6.0728 C.2       1 <0>        -0.2694
     12 C10         1.0619    6.2190    7.4604 C.2       1 <0>         0.1522
     13 N2          0.8357    5.0596    8.0247 N.2       1 <0>        -0.5060
     14 C11         0.6446    3.9678    7.3056 C.2       1 <0>         0.2464
     15 S1          0.7674    4.5141    5.7185 S.3       1 <0>         0.2029
     16 N3          0.3973    2.6842    7.7505 N.pl3     1 <0>        -0.5650
     17 C12         0.2197    2.4414    9.1063 C.ar      1 <0>         0.4999
     18 C13        -0.1342    1.1736    9.5555 C.ar      1 <0>        -0.3181
     19 C14        -0.3003    0.9817   10.9244 C.ar      1 <0>         0.4940
     20 N4         -0.1157    2.0114   11.7481 N.ar      1 <0>        -0.5712
     21 C15         0.2193    3.1978   11.2829 C.ar      1 <0>         0.4509
     22 N5          0.3911    3.4178    9.9956 N.ar      1 <0>        -0.4879
     23 C16         0.4179    4.3344   12.2523 C.3       1 <0>        -0.1253
     24 N6         -0.6531   -0.2629   11.4224 N.pl3     1 <0>        -0.5744
     25 C17        -0.9639   -0.4449   12.8484 C.3       1 <0>         0.1013
     26 C18        -2.3114   -1.1652   12.9649 C.3       1 <0>         0.0387
     27 N7         -2.2712   -2.4031   12.1749 N.3       1 <0>        -0.5277
     28 C19        -2.0835   -2.1176   10.7462 C.3       1 <0>         0.0305
     29 C20        -0.7325   -1.4351   10.5377 C.3       1 <0>         0.1149
     30 C21        -3.4796   -3.2085   12.3965 C.3       1 <0>         0.0543
     31 C22        -3.2958   -4.5889   11.7629 C.3       1 <0>         0.0774
     32 O2         -2.2472   -5.2869   12.4378 O.3       1 <0>        -0.5615
     33 Cl1        -0.2110    9.6681    4.2952 Cl        1 <0>        -0.0453
     34 H1          2.7121    6.0191    1.1609 H         1 <0>         0.0767
     35 H2          4.2810    6.8077    1.4524 H         1 <0>         0.0779
     36 H3          3.3298    6.1850    2.8220 H         1 <0>         0.0648
     37 H4          3.6435    8.8670    0.3327 H         1 <0>         0.1365
     38 H5          2.5139   11.0437    0.5337 H         1 <0>         0.1383
     39 H6          0.8148   11.3976    2.2790 H         1 <0>         0.1396
     40 H7          1.0484    6.2731    3.4723 H         1 <0>         0.4083
     41 H8          1.2191    7.1147    8.0430 H         1 <0>         0.1979
     42 H9          0.3477    1.9521    7.1161 H         1 <0>         0.4525
     43 H10        -0.2767    0.3593    8.8606 H         1 <0>         0.1835
     44 H11         1.4596    4.3615   12.5720 H         1 <0>         0.1250
     45 H12         0.1626    5.2758   11.7656 H         1 <0>         0.1301
     46 H13        -0.2249    4.1881   13.1203 H         1 <0>         0.1049
     47 H14        -0.1857   -1.0458   13.3190 H         1 <0>         0.1119
     48 H15        -1.0251    0.5276   13.3369 H         1 <0>         0.0843
     49 H16        -2.5057   -1.4068   14.0099 H         1 <0>         0.1076
     50 H17        -3.1034   -0.5184   12.5874 H         1 <0>         0.0465
     51 H18        -2.1124   -3.0499   10.1822 H         1 <0>         0.1076
     52 H19        -2.8786   -1.4576   10.3996 H         1 <0>         0.0467
     53 H20        -0.6409   -1.1170    9.4992 H         1 <0>         0.1034
     54 H21         0.0684   -2.1330   10.7819 H         1 <0>         0.1075
     55 H22        -3.6507   -3.3200   13.4672 H         1 <0>         0.0925
     56 H23        -4.3362   -2.7111   11.9416 H         1 <0>         0.0553
     57 H24        -4.2233   -5.1548   11.8494 H         1 <0>         0.0565
     58 H25        -3.0370   -4.4741   10.7103 H         1 <0>         0.0456
     59 H26        -2.0752   -6.1719   12.0881 H         1 <0>         0.3821
     60 H27        -0.2297    1.8867   12.7033 H         1 <0>         0.4392
@<TRIPOS>BOND
     1    1    2 1
     2    1   34 1
     3    1   35 1
     4    1   36 1
     5    2    7 ar
     6    2    3 ar
     7    3    4 ar
     8    3   37 1
     9    4    5 ar
    10    4   38 1
    11    5    6 ar
    12    5   39 1
    13    6    7 ar
    14    6   33 1
    15    7    8 1
    16    8    9 am
    17    8   40 1
    18    9   10 2
    19    9   11 1
    20   11   15 1
    21   11   12 2
    22   12   13 1
    23   12   41 1
    24   13   14 2
    25   14   15 1
    26   14   16 1
    27   16   17 1
    28   16   42 1
    29   17   18 ar
    30   17   22 ar
    31   18   43 1
    32   18   19 ar
    33   19   24 1
    34   19   20 ar
    35   20   60 1
    36   20   21 ar
    37   21   23 1
    38   21   22 ar
    39   23   44 1
    40   23   45 1
    41   23   46 1
    42   24   29 1
    43   24   25 1
    44   25   26 1
    45   25   47 1
    46   25   48 1
    47   26   27 1
    48   26   49 1
    49   26   50 1
    50   27   28 1
    51   27   30 1
    52   28   29 1
    53   28   51 1
    54   28   52 1
    55   29   53 1
    56   29   54 1
    57   30   31 1
    58   30   55 1
    59   30   56 1
    60   31   32 1
    61   31   57 1
    62   31   58 1
    63   32   59 1
@<TRIPOS>MOLECULE
CHEMBL1421__3
   60    63     0     0     0
SMALL
USER_CHARGES

@<TRIPOS>ATOM
      1 C1          3.4124    6.6512    1.8897 C.3       1 <0>        -0.1163
      2 C2          2.6920    7.9714    1.9854 C.ar      1 <0>        -0.0843
      3 C3          3.0121    8.9981    1.1182 C.ar      1 <0>        -0.1045
      4 C4          2.3522   10.2099    1.2048 C.ar      1 <0>        -0.1038
      5 C5          1.3694   10.3990    2.1594 C.ar      1 <0>        -0.1055
      6 C6          1.0444    9.3766    3.0303 C.ar      1 <0>        -0.0236
      7 C7          1.7022    8.1551    2.9413 C.ar      1 <0>         0.1417
      8 N1          1.3714    7.1153    3.8168 N.am      1 <0>        -0.6710
      9 C8          1.3553    7.3335    5.1467 C.2       1 <0>         0.6087
     10 O1          1.5292    8.4574    5.5814 O.2       1 <0>        -0.4836
     11 C9          1.1291    6.2203    6.0676 C.2       1 <0>        -0.2919
     12 C10         1.0670    6.2153    7.4542 C.2       1 <0>         0.1635
     13 N2          0.8483    5.0563    8.0223 N.2       1 <0>        -0.5133
     14 C11         0.6959    3.9554    7.3079 C.2       1 <0>         0.2908
     15 S1          0.8482    4.4913    5.7199 S.3       1 <0>         0.1520
     16 N3          0.4615    2.6710    7.7573 N.pl3     1 <0>        -0.5898
     17 C12         0.2513    2.4361    9.1097 C.ar      1 <0>         0.4534
     18 C13        -0.0954    1.1662    9.5600 C.ar      1 <0>        -0.3376
     19 C14        -0.2952    0.9826   10.9250 C.ar      1 <0>         0.4607
     20 N4         -0.1485    2.0216   11.7451 N.ar      1 <0>        -0.5908
     21 C15         0.1808    3.2091   11.2794 C.ar      1 <0>         0.4046
     22 N5          0.3838    3.4218    9.9951 N.ar      1 <0>        -0.5314
     23 C16         0.3360    4.3561   12.2444 C.3       1 <0>        -0.0894
     24 N6         -0.6424   -0.2634   11.4237 N.pl3     1 <0>        -0.6179
     25 C17        -1.0594   -0.4281   12.8248 C.3       1 <0>         0.1046
     26 C18        -2.3757   -1.2120   12.8509 C.3       1 <0>        -0.0221
     27 N7         -2.2083   -2.4723   12.1163 N.4       1 <0>        -0.3823
     28 C19        -1.9425   -2.1937   10.6993 C.3       1 <0>        -0.0268
     29 C20        -0.6101   -1.4576   10.5651 C.3       1 <0>         0.1016
     30 C21        -3.4346   -3.2724   12.2345 C.3       1 <0>        -0.0056
     31 C22        -3.2188   -4.6367   11.5764 C.3       1 <0>         0.0448
     32 O2         -2.2227   -5.3623   12.2999 O.3       1 <0>        -0.5801
     33 Cl1        -0.1888    9.6145    4.2287 Cl        1 <0>        -0.0445
     34 H1          2.8800    5.9959    1.2003 H         1 <0>         0.0756
     35 H2          4.4261    6.8160    1.5246 H         1 <0>         0.0766
     36 H3          3.4521    6.1867    2.8750 H         1 <0>         0.0659
     37 H4          3.7793    8.8541    0.3718 H         1 <0>         0.1351
     38 H5          2.6049   11.0108    0.5257 H         1 <0>         0.1369
     39 H6          0.8557   11.3468    2.2245 H         1 <0>         0.1384
     40 H7          1.1536    6.2373    3.4667 H         1 <0>         0.4079
     41 H8          1.1926    7.1184    8.0330 H         1 <0>         0.1916
     42 H9          0.4436    1.9328    7.1283 H         1 <0>         0.4399
     43 H10        -0.2069    0.3443    8.8682 H         1 <0>         0.1428
     44 H11         1.3682    4.4018   12.5916 H         1 <0>         0.0928
     45 H12         0.0795    5.2896   11.7434 H         1 <0>         0.0949
     46 H13        -0.3276    4.2067   13.0961 H         1 <0>         0.0877
     47 H14        -0.2944   -0.9785   13.3724 H         1 <0>         0.0917
     48 H15        -1.2071    0.5511   13.2804 H         1 <0>         0.1402
     49 H16        -2.6503   -1.4269   13.8836 H         1 <0>         0.1447
     50 H17        -3.1610   -0.6193   12.3817 H         1 <0>         0.1326
     51 H18        -1.8978   -3.1321   10.1466 H         1 <0>         0.1433
     52 H19        -2.7409   -1.5714   10.2952 H         1 <0>         0.1343
     53 H20        -0.4609   -1.1588    9.5276 H         1 <0>         0.1286
     54 H21         0.2011   -2.1137   10.8807 H         1 <0>         0.0966
     55 H22        -3.6776   -3.4115   13.2880 H         1 <0>         0.1407
     56 H23        -4.2553   -2.7551   11.7376 H         1 <0>         0.1422
     57 H24        -4.1541   -5.1964   11.5852 H         1 <0>         0.0964
     58 H25        -2.8895   -4.4955   10.5470 H         1 <0>         0.0713
     59 H26        -2.0341   -6.2389   11.9379 H         1 <0>         0.4101
     60 H27        -1.4342   -2.9879   12.5075 H         1 <0>         0.4311
@<TRIPOS>BOND
     1    1    2 1
     2    1   34 1
     3    1   35 1
     4    1   36 1
     5    2    7 ar
     6    2    3 ar
     7    3    4 ar
     8    3   37 1
     9    4    5 ar
    10    4   38 1
    11    5    6 ar
    12    5   39 1
    13    6    7 ar
    14    6   33 1
    15    7    8 1
    16    8    9 am
    17    8   40 1
    18    9   10 2
    19    9   11 1
    20   11   15 1
    21   11   12 2
    22   12   13 1
    23   12   41 1
    24   13   14 2
    25   14   15 1
    26   14   16 1
    27   16   17 1
    28   16   42 1
    29   17   22 ar
    30   17   18 ar
    31   18   19 ar
    32   18   43 1
    33   19   20 ar
    34   19   24 1
    35   20   21 ar
    36   21   22 ar
    37   21   23 1
    38   23   44 1
    39   23   45 1
    40   23   46 1
    41   24   29 1
    42   24   25 1
    43   25   26 1
    44   25   47 1
    45   25   48 1
    46   26   27 1
    47   26   49 1
    48   26   50 1
    49   27   28 1
    50   27   30 1
    51   27   60 1
    52   28   29 1
    53   28   51 1
    54   28   52 1
    55   29   53 1
    56   29   54 1
    57   30   31 1
    58   30   55 1
    59   30   56 1
    60   31   32 1
    61   31   57 1
    62   31   58 1
    63   32   59 1
@<TRIPOS>MOLECULE
CHEMBL1421__4
   61    64     0     0     0
SMALL
USER_CHARGES

@<TRIPOS>ATOM
      1 C1          3.2770    6.6581    1.8427 C.3       1 <0>        -0.1166
      2 C2          2.5837    7.9904    1.9667 C.ar      1 <0>        -0.0814
      3 C3          2.9012    9.0183    1.0999 C.ar      1 <0>        -0.1028
      4 C4          2.2660   10.2411    1.2125 C.ar      1 <0>        -0.0975
      5 C5          1.3108   10.4402    2.1928 C.ar      1 <0>        -0.1039
      6 C6          0.9888    9.4167    3.0634 C.ar      1 <0>        -0.0218
      7 C7          1.6215    8.1842    2.9485 C.ar      1 <0>         0.1327
      8 N1          1.2933    7.1433    3.8237 N.am      1 <0>        -0.6648
      9 C8          1.3141    7.3507    5.1552 C.2       1 <0>         0.5983
     10 O1          1.5193    8.4677    5.5943 O.2       1 <0>        -0.4690
     11 C9          1.0903    6.2342    6.0727 C.2       1 <0>        -0.2500
     12 C10         1.0624    6.2188    7.4604 C.2       1 <0>         0.1439
     13 N2          0.8362    5.0594    8.0246 N.2       1 <0>        -0.4984
     14 C11         0.6458    3.9675    7.3056 C.2       1 <0>         0.2172
     15 S1          0.7692    4.5136    5.7185 S.3       1 <0>         0.2242
     16 N3          0.3986    2.6839    7.7506 N.pl3     1 <0>        -0.5513
     17 C12         0.2203    2.4413    9.1063 C.ar      1 <0>         0.5098
     18 C13        -0.1335    1.1734    9.5556 C.ar      1 <0>        -0.3097
     19 C14        -0.3003    0.9817   10.9244 C.ar      1 <0>         0.4927
     20 N4         -0.1163    2.0116   11.7481 N.ar      1 <0>        -0.5695
     21 C15         0.2187    3.1980   11.2828 C.ar      1 <0>         0.4589
     22 N5          0.3911    3.4178    9.9956 N.ar      1 <0>        -0.4762
     23 C16         0.4165    4.3348   12.2521 C.3       1 <0>        -0.1303
     24 N6         -0.6531   -0.2629   11.4224 N.pl3     1 <0>        -0.6123
     25 C17        -0.9643   -0.4465   12.8484 C.3       1 <0>         0.0782
     26 C18        -2.3027   -1.1838   12.9625 C.3       1 <0>        -0.0204
     27 N7         -2.2406   -2.4311   12.1903 N.4       1 <0>        -0.3852
     28 C19        -2.0770   -2.1279   10.7629 C.3       1 <0>        -0.0304
     29 C20        -0.7330   -1.4363   10.5388 C.3       1 <0>         0.0932
     30 C21        -3.4827   -3.1900   12.3886 C.3       1 <0>        -0.0061
     31 C22        -3.3702   -4.5448   11.6865 C.3       1 <0>         0.0434
     32 O2         -2.3479   -5.3224   12.3128 O.3       1 <0>        -0.5819
     33 Cl1        -0.2098    9.6671    4.2940 Cl        1 <0>        -0.0466
     34 H1          2.7157    6.0184    1.1617 H         1 <0>         0.0770
     35 H2          4.2843    6.8074    1.4538 H         1 <0>         0.0791
     36 H3          3.3325    6.1847    2.8230 H         1 <0>         0.0631
     37 H4          3.6468    8.8665    0.3335 H         1 <0>         0.1380
     38 H5          2.5166   11.0428    0.5336 H         1 <0>         0.1401
     39 H6          0.8165   11.3966    2.2780 H         1 <0>         0.1410
     40 H7          1.0508    6.2723    3.4722 H         1 <0>         0.4077
     41 H8          1.2191    7.1146    8.0429 H         1 <0>         0.2016
     42 H9          0.3494    1.9517    7.1163 H         1 <0>         0.4545
     43 H10        -0.2756    0.3590    8.8607 H         1 <0>         0.1860
     44 H11         1.4581    4.3621   12.5724 H         1 <0>         0.1309
     45 H12         0.1613    5.2760   11.7653 H         1 <0>         0.1358
     46 H13        -0.2267    4.1885   13.1199 H         1 <0>         0.1083
     47 H14        -0.1795   -1.0367   13.3215 H         1 <0>         0.1249
     48 H15        -1.0392    0.5259   13.3352 H         1 <0>         0.1232
     49 H16        -2.5028   -1.4138   14.0090 H         1 <0>         0.1602
     50 H17        -3.0999   -0.5526   12.5701 H         1 <0>         0.1410
     51 H18        -2.1110   -3.0537   10.1885 H         1 <0>         0.1585
     52 H19        -2.8811   -1.4682   10.4370 H         1 <0>         0.1418
     53 H20        -0.6550   -1.1179    9.4992 H         1 <0>         0.1416
     54 H21         0.0756   -2.1281   10.7747 H         1 <0>         0.1211
     55 H22        -3.6469   -3.3459   13.4548 H         1 <0>         0.1465
     56 H23        -4.3202   -2.6321   11.9697 H         1 <0>         0.1464
     57 H24        -4.3221   -5.0710   11.7578 H         1 <0>         0.1026
     58 H25        -3.1180   -4.3904   10.6374 H         1 <0>         0.0719
     59 H26        -2.2211   -6.1961   11.9183 H         1 <0>         0.4154
     60 H27        -0.2308    1.8869   12.7032 H         1 <0>         0.4393
     61 H28        -1.4578   -2.9831   12.5075 H         1 <0>         0.4359
@<TRIPOS>BOND
     1    1    2 1
     2    1   34 1
     3    1   35 1
     4    1   36 1
     5    2    7 ar
     6    2    3 ar
     7    3    4 ar
     8    3   37 1
     9    4    5 ar
    10    4   38 1
    11    5    6 ar
    12    5   39 1
    13    6    7 ar
    14    6   33 1
    15    7    8 1
    16    8    9 am
    17    8   40 1
    18    9   10 2
    19    9   11 1
    20   11   15 1
    21   11   12 2
    22   12   13 1
    23   12   41 1
    24   13   14 2
    25   14   15 1
    26   14   16 1
    27   16   17 1
    28   16   42 1
    29   17   18 ar
    30   17   22 ar
    31   18   43 1
    32   18   19 ar
    33   19   24 1
    34   19   20 ar
    35   20   60 1
    36   20   21 ar
    37   21   23 1
    38   21   22 ar
    39   23   44 1
    40   23   45 1
    41   23   46 1
    42   24   29 1
    43   24   25 1
    44   25   26 1
    45   25   47 1
    46   25   48 1
    47   26   27 1
    48   26   49 1
    49   26   50 1
    50   27   28 1
    51   27   30 1
    52   27   61 1
    53   28   29 1
    54   28   51 1
    55   28   52 1
    56   29   53 1
    57   29   54 1
    58   30   31 1
    59   30   55 1
    60   30   56 1
    61   31   32 1
    62   31   57 1
    63   31   58 1
    64   32   59 1
@<TRIPOS>MOLECULE
CHEMBL360034
   36    39     0     0     0
SMALL
USER_CHARGES

@<TRIPOS>ATOM
      1 C1         -0.7485    1.6048    0.3215 C.3       1 <0>        -0.1010
      2 C2         -0.5683    0.1117    0.2241 C.ar      1 <0>         0.1316
      3 C3         -0.6772   -0.5094   -1.0067 C.ar      1 <0>        -0.1660
      4 C4         -0.5107   -1.8847   -1.0928 C.ar      1 <0>        -0.0766
      5 C5         -0.2394   -2.5914    0.0655 C.ar      1 <0>        -0.1388
      6 C6         -0.1431   -1.9008    1.2735 C.ar      1 <0>         0.1998
      7 N1         -0.3040   -0.5830    1.3116 N.ar      1 <0>        -0.4527
      8 C7          0.1460   -2.6417    2.5218 C.2       1 <0>         0.1961
      9 C8          0.7644   -2.0363    3.6148 C.2       1 <0>        -0.1882
     10 S1          0.8281   -3.4060    4.7583 S.3       1 <0>         0.1390
     11 C9          0.0961   -4.5654    3.7836 C.2       1 <0>         0.3260
     12 N2         -0.1718   -3.9179    2.6705 N.2       1 <0>        -0.5797
     13 N3         -0.1674   -5.8881    4.0845 N.pl3     1 <0>        -0.7966
     14 C10         1.2351   -0.6513    3.7801 C.ar      1 <0>         0.2750
     15 C11         0.9152    0.0508    4.9585 C.ar      1 <0>        -0.1417
     16 C12         1.3445    1.3311    5.1226 C.ar      1 <0>        -0.0410
     17 C13         2.1076    1.9222    4.0915 C.ar      1 <0>         0.0761
     18 C14         2.3957    1.1630    2.9306 C.ar      1 <0>         0.0925
     19 N4          1.9551   -0.0920    2.8211 N.ar      1 <0>        -0.4329
     20 C15         3.1574    1.7572    1.9046 C.ar      1 <0>        -0.0428
     21 C16         3.5841    3.0431    2.0784 C.ar      1 <0>        -0.1603
     22 C17         3.2637    3.7307    3.2464 C.ar      1 <0>         0.1297
     23 N5          2.5547    3.1744    4.1997 N.ar      1 <0>        -0.4643
     24 H1          0.1956    2.1002    0.0947 H         1 <0>         0.0754
     25 H2         -1.5079    1.9263   -0.3913 H         1 <0>         0.0758
     26 H3         -1.0634    1.8676    1.3313 H         1 <0>         0.0725
     27 H4         -0.8901    0.0702   -1.8927 H         1 <0>         0.1347
     28 H5         -0.5914   -2.3921   -2.0428 H         1 <0>         0.1369
     29 H6         -0.1045   -3.6625    0.0347 H         1 <0>         0.1387
     30 H7          0.0786   -6.2466    4.9516 H         1 <0>         0.4221
     31 H8         -0.5984   -6.4581    3.4285 H         1 <0>         0.4172
     32 H9          0.3296   -0.4264    5.7304 H         1 <0>         0.1428
     33 H10         1.1072    1.8829    6.0202 H         1 <0>         0.1498
     34 H11         3.3977    1.2102    1.0049 H         1 <0>         0.1430
     35 H12         4.1701    3.5262    1.3105 H         1 <0>         0.1438
     36 H13         3.6077    4.7470    3.3705 H         1 <0>         0.1639
@<TRIPOS>BOND
     1    1    2 1
     2    1   24 1
     3    1   25 1
     4    1   26 1
     5    2    7 ar
     6    2    3 ar
     7    3    4 ar
     8    3   27 1
     9    4    5 ar
    10    4   28 1
    11    5    6 ar
    12    5   29 1
    13    6    7 ar
    14    6    8 1
    15    8   12 1
    16    8    9 2
    17    9   10 1
    18    9   14 1
    19   10   11 1
    20   11   12 2
    21   11   13 1
    22   13   30 1
    23   13   31 1
    24   14   19 ar
    25   14   15 ar
    26   15   16 ar
    27   15   32 1
    28   16   17 ar
    29   16   33 1
    30   17   23 ar
    31   17   18 ar
    32   18   19 ar
    33   18   20 ar
    34   20   21 ar
    35   20   34 1
    36   21   22 ar
    37   21   35 1
    38   22   23 ar
    39   22   36 1
@<TRIPOS>MOLECULE
CHEMBL205158
   57    61     0     0     0
SMALL
USER_CHARGES

@<TRIPOS>ATOM
      1 C1          0.1642    1.7831    0.2382 C.ar      1 <0>        -0.0759
      2 C2          1.3924    2.4193    0.1212 C.ar      1 <0>        -0.1630
      3 C3          2.5489    1.6625    0.1006 C.ar      1 <0>         0.1040
      4 N1          2.4996    0.3487    0.1902 N.ar      1 <0>        -0.4547
      5 C4          1.3464   -0.2978    0.3033 C.ar      1 <0>         0.1909
      6 C5          0.1416    0.4026    0.3310 C.ar      1 <0>        -0.1397
      7 C6          1.3393   -1.7769    0.4007 C.2       1 <0>         0.1400
      8 C7          2.3450   -2.6513   -0.0848 C.2       1 <0>        -0.1794
      9 C8          1.9553   -3.9247    0.2062 C.2       1 <0>         0.0810
     10 N2          0.7679   -3.8586    0.8410 N.pl3     1 <0>        -0.4607
     11 H1          0.2556   -4.6156    1.1657 H         1 <0>         0.4476
     12 N3          0.4021   -2.5123    0.9577 N.2       1 <0>        -0.2699
     13 C9          3.5917   -2.2531   -0.7817 C.ar      1 <0>         0.0630
     14 C10         3.5575   -1.3651   -1.8630 C.ar      1 <0>        -0.1433
     15 C11         4.7376   -1.0175   -2.4868 C.ar      1 <0>         0.1081
     16 N4          5.8917   -1.5085   -2.0798 N.ar      1 <0>        -0.4856
     17 C12         5.9737   -2.3536   -1.0592 C.ar      1 <0>         0.1778
     18 C13         4.8303   -2.7497   -0.3728 C.ar      1 <0>        -0.1589
     19 C14         7.2978   -2.8760   -0.6431 C.ar      1 <0>        -0.0884
     20 C15         7.3927   -3.7682    0.4239 C.ar      1 <0>        -0.0602
     21 C16         8.6251   -4.2522    0.8085 C.ar      1 <0>        -0.1552
     22 C17         9.7711   -3.8515    0.1345 C.ar      1 <0>         0.1436
     23 C18         9.6797   -2.9629   -0.9287 C.ar      1 <0>        -0.2176
     24 C19         8.4495   -2.4803   -1.3218 C.ar      1 <0>        -0.0369
     25 O1         10.9840   -4.3293    0.5163 O.3       1 <0>        -0.2967
     26 C20        12.1213   -3.8756   -0.2206 C.3       1 <0>         0.0653
     27 C21        13.3878   -4.5165    0.3504 C.3       1 <0>         0.0543
     28 N5         13.3413   -5.9689    0.1354 N.3       1 <0>        -0.5308
     29 C22        14.2676   -6.6654    1.0399 C.3       1 <0>         0.0185
     30 C23        14.1437   -8.1760    0.8244 C.3       1 <0>         0.0629
     31 O2         14.3987   -8.4789   -0.5499 O.3       1 <0>        -0.3854
     32 C24        13.5143   -7.8179   -1.4588 C.3       1 <0>         0.0637
     33 C25        13.6318   -6.3036   -1.2664 C.3       1 <0>         0.0139
     34 H2         -0.7528    2.3530    0.2610 H         1 <0>         0.1393
     35 H3          1.4438    3.4955    0.0464 H         1 <0>         0.1386
     36 H4          3.5060    2.1546    0.0096 H         1 <0>         0.1600
     37 H5         -0.7964   -0.1247    0.4235 H         1 <0>         0.1396
     38 H6          2.5007   -4.8264   -0.0302 H         1 <0>         0.1869
     39 H7          2.6179   -0.9570   -2.2052 H         1 <0>         0.1229
     40 H8          4.7159   -0.3329   -3.3218 H         1 <0>         0.1535
     41 H9          4.8995   -3.4336    0.4601 H         1 <0>         0.1321
     42 H10         6.5018   -4.0797    0.9490 H         1 <0>         0.1316
     43 H11         8.6993   -4.9434    1.6350 H         1 <0>         0.1333
     44 H12        10.5728   -2.6528   -1.4508 H         1 <0>         0.1280
     45 H13         8.3786   -1.7927   -2.1516 H         1 <0>         0.1371
     46 H14        12.0118   -4.1576   -1.2678 H         1 <0>         0.0636
     47 H15        12.1959   -2.7910   -0.1423 H         1 <0>         0.0685
     48 H16        14.2624   -4.1027   -0.1516 H         1 <0>         0.0617
     49 H17        13.4500   -4.3092    1.4187 H         1 <0>         0.0886
     50 H18        15.2892   -6.3500    0.8280 H         1 <0>         0.0435
     51 H19        14.0182   -6.4235    2.0731 H         1 <0>         0.0886
     52 H20        14.8691   -8.6939    1.4519 H         1 <0>         0.0992
     53 H21        13.1368   -8.4999    1.0877 H         1 <0>         0.0615
     54 H22        13.7844   -8.0767   -2.4826 H         1 <0>         0.0988
     55 H23        12.4890   -8.1313   -1.2619 H         1 <0>         0.0611
     56 H24        12.9183   -5.7976   -1.9168 H         1 <0>         0.0854
     57 H25        14.6432   -5.9825   -1.5152 H         1 <0>         0.0445
@<TRIPOS>BOND
     1    1    6 ar
     2    1    2 ar
     3    1   34 1
     4    2    3 ar
     5    2   35 1
     6    3    4 ar
     7    3   36 1
     8    4    5 ar
     9    5    6 ar
    10    5    7 1
    11    6   37 1
    12    7   12 2
    13    7    8 1
    14    8    9 2
    15    8   13 1
    16    9   10 1
    17    9   38 1
    18   10   11 1
    19   10   12 1
    20   13   18 ar
    21   13   14 ar
    22   14   15 ar
    23   14   39 1
    24   15   16 ar
    25   15   40 1
    26   16   17 ar
    27   17   18 ar
    28   17   19 1
    29   18   41 1
    30   19   24 ar
    31   19   20 ar
    32   20   21 ar
    33   20   42 1
    34   21   22 ar
    35   21   43 1
    36   22   23 ar
    37   22   25 1
    38   23   24 ar
    39   23   44 1
    40   24   45 1
    41   25   26 1
    42   26   27 1
    43   26   46 1
    44   26   47 1
    45   27   28 1
    46   27   48 1
    47   27   49 1
    48   28   33 1
    49   28   29 1
    50   29   30 1
    51   29   50 1
    52   29   51 1
    53   30   31 1
    54   30   52 1
    55   30   53 1
    56   31   32 1
    57   32   33 1
    58   32   54 1
    59   32   55 1
    60   33   56 1
    61   33   57 1
@<TRIPOS>MOLECULE
CHEMBL205158__1
   57    61     0     0     0
SMALL
USER_CHARGES

@<TRIPOS>ATOM
      1 C1          0.1672    1.7821    0.2387 C.ar      1 <0>        -0.0688
      2 C2          1.3952    2.4191    0.1212 C.ar      1 <0>        -0.1610
      3 C3          2.5530    1.6633    0.0999 C.ar      1 <0>         0.1104
      4 N1          2.5056    0.3499    0.1890 N.ar      1 <0>        -0.4488
      5 C4          1.3517   -0.2988    0.3027 C.ar      1 <0>         0.1751
      6 C5          0.1448    0.4021    0.3311 C.ar      1 <0>        -0.1583
      7 C6          1.3459   -1.7727    0.3994 C.2       1 <0>         0.1443
      8 C7          2.3235   -2.6360   -0.0785 C.2       1 <0>        -0.1640
      9 C8          1.9117   -3.9447    0.2298 C.2       1 <0>         0.0696
     10 N2          0.7644   -3.8837    0.8514 N.2       1 <0>        -0.2703
     11 H1         -0.4258   -2.2188    1.4046 H         1 <0>         0.4429
     12 N3          0.3835   -2.5429    0.9792 N.pl3     1 <0>        -0.4611
     13 C9          3.5689   -2.2496   -0.7827 C.ar      1 <0>         0.0620
     14 C10         3.5357   -1.3653   -1.8675 C.ar      1 <0>        -0.1465
     15 C11         4.7153   -1.0287   -2.4984 C.ar      1 <0>         0.1080
     16 N4          5.8678   -1.5268   -2.0954 N.ar      1 <0>        -0.4854
     17 C12         5.9490   -2.3685   -1.0719 C.ar      1 <0>         0.1789
     18 C13         4.8064   -2.7536   -0.3780 C.ar      1 <0>        -0.1553
     19 C14         7.2714   -2.8987   -0.6605 C.ar      1 <0>        -0.0891
     20 C15         7.3654   -3.7876    0.4094 C.ar      1 <0>        -0.0595
     21 C16         8.5963   -4.2792    0.7892 C.ar      1 <0>        -0.1549
     22 C17         9.7416   -3.8894    0.1076 C.ar      1 <0>         0.1438
     23 C18         9.6511   -3.0043   -0.9584 C.ar      1 <0>        -0.2180
     24 C19         8.4224   -2.5137   -1.3466 C.ar      1 <0>        -0.0369
     25 O1         10.9530   -4.3748    0.4848 O.3       1 <0>        -0.2965
     26 C20        12.0895   -3.9323   -0.2598 C.3       1 <0>         0.0652
     27 C21        13.3544   -4.5804    0.3069 C.3       1 <0>         0.0543
     28 N5         13.2960   -6.0332    0.0976 N.3       1 <0>        -0.5307
     29 C22        14.2220   -6.7330    0.9999 C.3       1 <0>         0.0186
     30 C23        14.0858   -8.2435    0.7908 C.3       1 <0>         0.0628
     31 O2         14.3312   -8.5535   -0.5837 O.3       1 <0>        -0.3854
     32 C24        13.4469   -7.8894   -1.4904 C.3       1 <0>         0.0636
     33 C25        13.5765   -6.3753   -1.3044 C.3       1 <0>         0.0139
     34 H2         -0.7501    2.3518    0.2619 H         1 <0>         0.1415
     35 H3          1.4458    3.4953    0.0467 H         1 <0>         0.1414
     36 H4          3.5093    2.1566    0.0086 H         1 <0>         0.1632
     37 H5         -0.7930   -0.1255    0.4239 H         1 <0>         0.1333
     38 H6          2.4531   -4.8485   -0.0076 H         1 <0>         0.1933
     39 H7          2.5975   -0.9517   -2.2067 H         1 <0>         0.1214
     40 H8          4.6945   -0.3469   -3.3356 H         1 <0>         0.1530
     41 H9          4.8750   -3.4345    0.4575 H         1 <0>         0.1343
     42 H10         6.4750   -4.0905    0.9403 H         1 <0>         0.1327
     43 H11         8.6697   -4.9678    1.6180 H         1 <0>         0.1337
     44 H12        10.5436   -2.7027   -1.4864 H         1 <0>         0.1279
     45 H13         8.3522   -1.8285   -2.1784 H         1 <0>         0.1368
     46 H14        11.9724   -4.2174   -1.3053 H         1 <0>         0.0636
     47 H15        12.1726   -2.8480   -0.1860 H         1 <0>         0.0683
     48 H16        14.2293   -4.1749   -0.2013 H         1 <0>         0.0616
     49 H17        13.4238   -4.3695    1.3740 H         1 <0>         0.0886
     50 H18        15.2448   -6.4261    0.7814 H         1 <0>         0.0434
     51 H19        13.9799   -6.4854    2.0334 H         1 <0>         0.0886
     52 H20        14.8107   -8.7644    1.4164 H         1 <0>         0.0991
     53 H21        13.0780   -8.5590    1.0607 H         1 <0>         0.0616
     54 H22        13.7096   -8.1541   -2.5146 H         1 <0>         0.0988
     55 H23        12.4204   -8.1945   -1.2868 H         1 <0>         0.0613
     56 H24        12.8633   -5.8665   -1.9529 H         1 <0>         0.0855
     57 H25        14.5890   -6.0626   -1.5597 H         1 <0>         0.0444
@<TRIPOS>BOND
     1    1    6 ar
     2    1    2 ar
     3    1   34 1
     4    2    3 ar
     5    2   35 1
     6    3    4 ar
     7    3   36 1
     8    4    5 ar
     9    5    6 ar
    10    5    7 1
    11    6   37 1
    12    7    8 2
    13    7   12 1
    14    8    9 1
    15    8   13 1
    16    9   10 2
    17    9   38 1
    18   10   12 1
    19   11   12 1
    20   13   18 ar
    21   13   14 ar
    22   14   15 ar
    23   14   39 1
    24   15   16 ar
    25   15   40 1
    26   16   17 ar
    27   17   18 ar
    28   17   19 1
    29   18   41 1
    30   19   24 ar
    31   19   20 ar
    32   20   21 ar
    33   20   42 1
    34   21   22 ar
    35   21   43 1
    36   22   23 ar
    37   22   25 1
    38   23   24 ar
    39   23   44 1
    40   24   45 1
    41   25   26 1
    42   26   27 1
    43   26   46 1
    44   26   47 1
    45   27   28 1
    46   27   48 1
    47   27   49 1
    48   28   33 1
    49   28   29 1
    50   29   30 1
    51   29   50 1
    52   29   51 1
    53   30   31 1
    54   30   52 1
    55   30   53 1
    56   31   32 1
    57   32   33 1
    58   32   54 1
    59   32   55 1
    60   33   56 1
    61   33   57 1
@<TRIPOS>MOLECULE
CHEMBL380916
   51    55     0     0     0
SMALL
USER_CHARGES

@<TRIPOS>ATOM
      1 C1         -0.1130    1.1951    0.0415 C.ar      1 <0>        -0.0755
      2 C2          1.0846    1.8954    0.0874 C.ar      1 <0>        -0.1624
      3 C3          2.2786    1.1991    0.0647 C.ar      1 <0>         0.1040
      4 N1          2.2933   -0.1169   -0.0002 N.ar      1 <0>        -0.4560
      5 C4          1.1712   -0.8235   -0.0457 C.ar      1 <0>         0.1903
      6 C5         -0.0684   -0.1862   -0.0259 C.ar      1 <0>        -0.1392
      7 C6          1.2362   -2.3027   -0.1186 C.2       1 <0>         0.1407
      8 C7          2.3173   -3.0676   -0.6264 C.2       1 <0>        -0.1815
      9 C8          1.9769   -4.3827   -0.5126 C.2       1 <0>         0.0823
     10 N2          0.7477   -4.4452    0.0373 N.pl3     1 <0>        -0.4600
     11 H1          0.2555   -5.2574    0.2347 H         1 <0>         0.4480
     12 N3          0.3043   -3.1400    0.2812 N.2       1 <0>        -0.2691
     13 C9          3.5854   -2.5345   -1.1798 C.ar      1 <0>         0.0619
     14 C10         3.5774   -1.5275   -2.1511 C.ar      1 <0>        -0.1350
     15 C11         4.7777   -1.0561   -2.6429 C.ar      1 <0>         0.1072
     16 N4          5.9255   -1.5401   -2.2120 N.ar      1 <0>        -0.4780
     17 C12         5.9829   -2.4955   -1.2920 C.ar      1 <0>         0.1604
     18 C13         4.8186   -3.0203   -0.7410 C.ar      1 <0>        -0.1502
     19 C14         7.3018   -3.0042   -0.8432 C.ar      1 <0>        -0.0173
     20 C15         7.3694   -4.0119    0.1188 C.ar      1 <0>        -0.1120
     21 C16         8.5934   -4.4852    0.5358 C.ar      1 <0>        -0.0611
     22 C17         9.7675   -3.9559   -0.0048 C.ar      1 <0>        -0.1267
     23 C18         9.6986   -2.9469   -0.9681 C.ar      1 <0>        -0.1283
     24 C19         8.4735   -2.4786   -1.3877 C.ar      1 <0>        -0.0895
     25 C20        11.0816   -4.4629    0.4423 C.2       1 <0>         0.5736
     26 O1         11.1489   -5.2322    1.3811 O.2       1 <0>        -0.5350
     27 N5         12.2055   -4.0722   -0.1906 N.am      1 <0>        -0.6156
     28 C21        12.2814   -3.0642   -1.2582 C.3       1 <0>         0.0869
     29 C22        13.7589   -2.9677   -1.6932 C.3       1 <0>        -0.1364
     30 C23        14.3443   -4.3313   -1.2398 C.3       1 <0>        -0.1345
     31 C24        13.5633   -4.5802    0.0772 C.3       1 <0>         0.1046
     32 H2         -1.0586    1.7165    0.0624 H         1 <0>         0.1396
     33 H3          1.0836    2.9741    0.1400 H         1 <0>         0.1389
     34 H4          3.2120    1.7412    0.1003 H         1 <0>         0.1602
     35 H5         -0.9811   -0.7625   -0.0626 H         1 <0>         0.1398
     36 H6          2.5840   -5.2248   -0.8103 H         1 <0>         0.1870
     37 H7          2.6429   -1.1240   -2.5121 H         1 <0>         0.1252
     38 H8          4.7765   -0.2789   -3.3928 H         1 <0>         0.1561
     39 H9          4.8676   -3.7940    0.0109 H         1 <0>         0.1343
     40 H10         6.4615   -4.4208    0.5370 H         1 <0>         0.1330
     41 H11         8.6456   -5.2653    1.2810 H         1 <0>         0.1384
     42 H12        10.6058   -2.5367   -1.3866 H         1 <0>         0.1616
     43 H13         8.4199   -1.7015   -2.1358 H         1 <0>         0.1418
     44 H14        11.6655   -3.3721   -2.1032 H         1 <0>         0.0826
     45 H15        11.9421   -2.0992   -0.8817 H         1 <0>         0.0813
     46 H16        13.8360   -2.8554   -2.7746 H         1 <0>         0.0866
     47 H17        14.2584   -2.1446   -1.1823 H         1 <0>         0.0800
     48 H18        14.1363   -5.1093   -1.9743 H         1 <0>         0.0781
     49 H19        15.4145   -4.2528   -1.0485 H         1 <0>         0.0873
     50 H20        14.0186   -4.0300    0.9007 H         1 <0>         0.0711
     51 H21        13.5318   -5.6460    0.3034 H         1 <0>         0.0803
@<TRIPOS>BOND
     1    1    6 ar
     2    1    2 ar
     3    1   32 1
     4    2    3 ar
     5    2   33 1
     6    3    4 ar
     7    3   34 1
     8    4    5 ar
     9    5    6 ar
    10    5    7 1
    11    6   35 1
    12    7   12 2
    13    7    8 1
    14    8    9 2
    15    8   13 1
    16    9   10 1
    17    9   36 1
    18   10   11 1
    19   10   12 1
    20   13   18 ar
    21   13   14 ar
    22   14   15 ar
    23   14   37 1
    24   15   16 ar
    25   15   38 1
    26   16   17 ar
    27   17   18 ar
    28   17   19 1
    29   18   39 1
    30   19   24 ar
    31   19   20 ar
    32   20   21 ar
    33   20   40 1
    34   21   22 ar
    35   21   41 1
    36   22   23 ar
    37   22   25 1
    38   23   24 ar
    39   23   42 1
    40   24   43 1
    41   25   26 2
    42   25   27 am
    43   27   31 1
    44   27   28 1
    45   28   29 1
    46   28   44 1
    47   28   45 1
    48   29   30 1
    49   29   46 1
    50   29   47 1
    51   30   31 1
    52   30   48 1
    53   30   49 1
    54   31   50 1
    55   31   51 1
@<TRIPOS>MOLECULE
CHEMBL380916__1
   51    55     0     0     0
SMALL
USER_CHARGES

@<TRIPOS>ATOM
      1 C1         -0.1134    1.1954    0.0421 C.ar      1 <0>        -0.0685
      2 C2          1.0843    1.8961    0.0882 C.ar      1 <0>        -0.1603
      3 C3          2.2792    1.2005    0.0657 C.ar      1 <0>         0.1103
      4 N1          2.2955   -0.1151    0.0013 N.ar      1 <0>        -0.4499
      5 C4          1.1726   -0.8236   -0.0445 C.ar      1 <0>         0.1742
      6 C5         -0.0690   -0.1855   -0.0253 C.ar      1 <0>        -0.1577
      7 C6          1.2382   -2.2974   -0.1162 C.2       1 <0>         0.1459
      8 C7          2.2904   -3.0544   -0.6155 C.2       1 <0>        -0.1663
      9 C8          1.9281   -4.4072   -0.4895 C.2       1 <0>         0.0700
     10 N2          0.7394   -4.4706    0.0485 N.2       1 <0>        -0.2694
     11 H1         -0.5713   -2.9368    0.6994 H         1 <0>         0.4433
     12 N3          0.2808   -3.1725    0.3002 N.pl3     1 <0>        -0.4604
     13 C9          3.5587   -2.5331   -1.1774 C.ar      1 <0>         0.0611
     14 C10         3.5530   -1.5305   -2.1539 C.ar      1 <0>        -0.1384
     15 C11         4.7542   -1.0697   -2.6533 C.ar      1 <0>         0.1071
     16 N4          5.9007   -1.5589   -2.2250 N.ar      1 <0>        -0.4778
     17 C12         5.9562   -2.5102   -1.3006 C.ar      1 <0>         0.1615
     18 C13         4.7912   -3.0254   -0.7422 C.ar      1 <0>        -0.1466
     19 C14         7.2738   -3.0247   -0.8549 C.ar      1 <0>        -0.0181
     20 C15         7.3395   -4.0281    0.1117 C.ar      1 <0>        -0.1112
     21 C16         8.5624   -4.5066    0.5262 C.ar      1 <0>        -0.0609
     22 C17         9.7373   -3.9869   -0.0219 C.ar      1 <0>        -0.1264
     23 C18         9.6704   -2.9824   -0.9901 C.ar      1 <0>        -0.1287
     24 C19         8.4464   -2.5088   -1.4068 C.ar      1 <0>        -0.0895
     25 C20        11.0503   -4.4993    0.4226 C.2       1 <0>         0.5735
     26 O1         11.1168   -5.2642    1.3650 O.2       1 <0>        -0.5346
     27 N5         12.1738   -4.1185   -0.2170 N.am      1 <0>        -0.6157
     28 C21        12.2513   -3.1165   -1.2901 C.3       1 <0>         0.0870
     29 C22        13.7276   -3.0310   -1.7315 C.3       1 <0>        -0.1364
     30 C23        14.3068   -4.3955   -1.2734 C.3       1 <0>        -0.1345
     31 C24        13.5297   -4.6330    0.0481 C.3       1 <0>         0.1046
     32 H2         -1.0590    1.7168    0.0629 H         1 <0>         0.1418
     33 H3          1.0827    2.9748    0.1407 H         1 <0>         0.1418
     34 H4          3.2121    1.7435    0.1011 H         1 <0>         0.1635
     35 H5         -0.9816   -0.7618   -0.0621 H         1 <0>         0.1336
     36 H6          2.5314   -5.2520   -0.7874 H         1 <0>         0.1934
     37 H7          2.6196   -1.1224   -2.5125 H         1 <0>         0.1237
     38 H8          4.7548   -0.2963   -3.4072 H         1 <0>         0.1557
     39 H9          4.8387   -3.7960    0.0130 H         1 <0>         0.1364
     40 H10         6.4309   -4.4298    0.5354 H         1 <0>         0.1341
     41 H11         8.6130   -5.2830    1.2752 H         1 <0>         0.1388
     42 H12        10.5783   -2.5800   -1.4146 H         1 <0>         0.1615
     43 H13         8.3943   -1.7348   -2.1581 H         1 <0>         0.1415
     44 H14        11.6302   -3.4251   -2.1310 H         1 <0>         0.0826
     45 H15        11.9191   -2.1476   -0.9172 H         1 <0>         0.0811
     46 H16        13.8009   -2.9247   -2.8138 H         1 <0>         0.0865
     47 H17        14.2339   -2.2081   -1.2269 H         1 <0>         0.0799
     48 H18        14.0913   -5.1761   -2.0030 H         1 <0>         0.0782
     49 H19        15.3782   -4.3223   -1.0868 H         1 <0>         0.0872
     50 H20        13.9915   -4.0813    0.8669 H         1 <0>         0.0710
     51 H21        13.4929   -5.6974    0.2800 H         1 <0>         0.0804
@<TRIPOS>BOND
     1    1    6 ar
     2    1    2 ar
     3    1   32 1
     4    2    3 ar
     5    2   33 1
     6    3    4 ar
     7    3   34 1
     8    4    5 ar
     9    5    6 ar
    10    5    7 1
    11    6   35 1
    12    7    8 2
    13    7   12 1
    14    8    9 1
    15    8   13 1
    16    9   10 2
    17    9   36 1
    18   10   12 1
    19   11   12 1
    20   13   18 ar
    21   13   14 ar
    22   14   15 ar
    23   14   37 1
    24   15   16 ar
    25   15   38 1
    26   16   17 ar
    27   17   18 ar
    28   17   19 1
    29   18   39 1
    30   19   24 ar
    31   19   20 ar
    32   20   21 ar
    33   20   40 1
    34   21   22 ar
    35   21   41 1
    36   22   23 ar
    37   22   25 1
    38   23   24 ar
    39   23   42 1
    40   24   43 1
    41   25   26 2
    42   25   27 am
    43   27   31 1
    44   27   28 1
    45   28   29 1
    46   28   44 1
    47   28   45 1
    48   29   30 1
    49   29   46 1
    50   29   47 1
    51   30   31 1
    52   30   48 1
    53   30   49 1
    54   31   50 1
    55   31   51 1
@<TRIPOS>MOLECULE
CHEMBL606632
   42    45     0     0     0
SMALL
USER_CHARGES

@<TRIPOS>ATOM
      1 C1         -1.1232    1.3856    0.1545 C.3       1 <0>        -0.0992
      2 C2         -0.9285   -0.1086    0.1314 C.ar      1 <0>         0.1359
      3 C3         -1.1411   -0.8054   -1.0431 C.ar      1 <0>        -0.1860
      4 C4         -0.9605   -2.1821   -1.0617 C.ar      1 <0>        -0.0672
      5 C5         -0.5708   -2.8132    0.1054 C.ar      1 <0>        -0.1680
      6 C6         -0.3735   -2.0483    1.2564 C.ar      1 <0>         0.2275
      7 N1         -0.5525   -0.7319    1.2300 N.ar      1 <0>        -0.4888
      8 C7          0.0431   -2.7069    2.5122 C.2       1 <0>        -0.2603
      9 C8          0.3953   -2.0803    3.6995 C.2       1 <0>         0.2627
     10 N2          0.7137   -3.0519    4.6127 N.pl3     1 <0>        -0.3826
     11 N3          0.5693   -4.3108    4.0217 N.am      1 <0>        -0.4152
     12 C9          0.1584   -4.1491    2.7480 C.2       1 <0>         0.5490
     13 O1         -0.0712   -5.0341    1.9441 O.2       1 <0>        -0.5310
     14 C10         0.8180   -5.5955    4.6805 C.3       1 <0>         0.0994
     15 C11         1.1396   -2.8090    5.9933 C.3       1 <0>         0.0915
     16 C12         0.4227   -0.6250    3.9368 C.ar      1 <0>        -0.0347
     17 C13        -0.2321   -0.0875    5.0613 C.ar      1 <0>        -0.0768
     18 C14        -0.2205    1.2478    5.3001 C.ar      1 <0>        -0.0869
     19 C15         0.4514    2.1167    4.4197 C.ar      1 <0>         0.0922
     20 C16         1.1157    1.5885    3.2831 C.ar      1 <0>         0.0764
     21 C17         1.0979    0.2037    3.0542 C.ar      1 <0>         0.0211
     22 N4          1.7545    2.4155    2.4471 N.ar      1 <0>        -0.4139
     23 C18         1.7603    3.7068    2.6865 C.ar      1 <0>         0.0738
     24 C19         1.1066    4.2269    3.8059 C.ar      1 <0>         0.0842
     25 N5          0.4723    3.4354    4.6408 N.ar      1 <0>        -0.4280
     26 H1         -0.1953    1.8776   -0.1369 H         1 <0>         0.0769
     27 H2         -1.9145    1.6597   -0.5433 H         1 <0>         0.0731
     28 H3         -1.4009    1.7003    1.1605 H         1 <0>         0.0672
     29 H4         -1.4455   -0.2838   -1.9385 H         1 <0>         0.1304
     30 H5         -1.1211   -2.7476   -1.9677 H         1 <0>         0.1333
     31 H6         -0.4216   -3.8827    0.1262 H         1 <0>         0.1478
     32 H7         -0.1003   -5.9461    5.1515 H         1 <0>         0.0720
     33 H8          1.1486   -6.3250    3.9411 H         1 <0>         0.1013
     34 H9          1.5909   -5.4712    5.4390 H         1 <0>         0.0809
     35 H10         0.2677   -2.8069    6.6474 H         1 <0>         0.0784
     36 H11         1.8262   -3.5958    6.3055 H         1 <0>         0.0888
     37 H12         1.6417   -1.8434    6.0540 H         1 <0>         0.1001
     38 H13        -0.7505   -0.7465    5.7420 H         1 <0>         0.1350
     39 H14        -0.7278    1.6449    6.1669 H         1 <0>         0.1444
     40 H15         1.6029   -0.2125    2.1950 H         1 <0>         0.1420
     41 H16         2.2762    4.3732    2.0112 H         1 <0>         0.1767
     42 H17         1.1227    5.2915    3.9870 H         1 <0>         0.1765
@<TRIPOS>BOND
     1    1    2 1
     2    1   26 1
     3    1   27 1
     4    1   28 1
     5    2    7 ar
     6    2    3 ar
     7    3    4 ar
     8    3   29 1
     9    4    5 ar
    10    4   30 1
    11    5    6 ar
    12    5   31 1
    13    6    7 ar
    14    6    8 1
    15    8   12 1
    16    8    9 2
    17    9   10 1
    18    9   16 1
    19   10   11 1
    20   10   15 1
    21   11   12 am
    22   11   14 1
    23   12   13 2
    24   14   32 1
    25   14   33 1
    26   14   34 1
    27   15   35 1
    28   15   36 1
    29   15   37 1
    30   16   21 ar
    31   16   17 ar
    32   17   18 ar
    33   17   38 1
    34   18   19 ar
    35   18   39 1
    36   19   25 ar
    37   19   20 ar
    38   20   21 ar
    39   20   22 ar
    40   21   40 1
    41   22   23 ar
    42   23   24 ar
    43   23   41 1
    44   24   25 ar
    45   24   42 1
@<TRIPOS>MOLECULE
CHEMBL238125
   35    38     0     0     0
SMALL
USER_CHARGES

@<TRIPOS>ATOM
      1 C1          1.0317   -0.4884   -4.9588 C.ar      1 <0>        -0.0509
      2 C2          2.2203    0.2174   -4.9848 C.ar      1 <0>        -0.1550
      3 C3          3.2438   -0.1154   -4.1168 C.ar      1 <0>         0.1653
      4 C4          3.0743   -1.1667   -3.2131 C.ar      1 <0>        -0.0833
      5 C5          1.8731   -1.8737   -3.1927 C.ar      1 <0>        -0.0283
      6 C6          0.8585   -1.5315   -4.0648 C.ar      1 <0>        -0.0629
      7 Cl1        -0.6381   -2.4110   -4.0399 Cl        1 <0>        -0.0503
      8 C7          4.1669   -1.5293   -2.2802 C.ar      1 <0>         0.4397
      9 N1          5.2444   -0.7686   -2.2538 N.ar      1 <0>        -0.5118
     10 C8          6.2643   -1.0437   -1.4330 C.ar      1 <0>         0.3340
     11 C9          6.1677   -2.1756   -0.5847 C.ar      1 <0>        -0.0551
     12 C10         4.9489   -2.9826   -0.6573 C.ar      1 <0>         0.5059
     13 N2          4.0075   -2.6020   -1.5092 N.ar      1 <0>        -0.5652
     14 N3          4.7836   -4.0985    0.1370 N.pl3     1 <0>        -0.6119
     15 C11         3.5676   -4.7790    0.1381 C.ar      1 <0>         0.1884
     16 C12         2.3670   -4.0989   -0.0635 C.ar      1 <0>        -0.1711
     17 C13         1.1849   -4.8093   -0.0551 C.ar      1 <0>         0.1207
     18 N4          1.1812   -6.1145    0.1407 N.ar      1 <0>        -0.4915
     19 C14         2.2959   -6.7939    0.3352 C.ar      1 <0>         0.1224
     20 C15         3.5202   -6.1587    0.3351 C.ar      1 <0>        -0.1965
     21 N5          7.1645   -2.4748    0.2424 N.ar      1 <0>        -0.3948
     22 C16         8.2378   -1.7137    0.2666 C.ar      1 <0>         0.0530
     23 C17         8.3377   -0.5984   -0.5658 C.ar      1 <0>         0.1331
     24 N6          7.3628   -0.2850   -1.3920 N.ar      1 <0>        -0.4200
     25 F1          4.4051    0.5744   -4.1431 F         1 <0>        -0.1000
     26 H1          0.2333   -0.2221   -5.6356 H         1 <0>         0.1504
     27 H2          2.3496    1.0298   -5.6845 H         1 <0>         0.1547
     28 H3          1.7363   -2.6878   -2.4964 H         1 <0>         0.1568
     29 H4          5.5138   -4.4093    0.6948 H         1 <0>         0.4361
     30 H5          2.3629   -3.0309   -0.2237 H         1 <0>         0.1474
     31 H6          0.2502   -4.2909   -0.2105 H         1 <0>         0.1615
     32 H7          2.2491   -7.8614    0.4921 H         1 <0>         0.1623
     33 H8          4.4289   -6.7213    0.4902 H         1 <0>         0.1395
     34 H9          9.0491   -1.9545    0.9376 H         1 <0>         0.1874
     35 H10         9.2261    0.0148   -0.5318 H         1 <0>         0.1899
@<TRIPOS>BOND
     1    1    6 ar
     2    1    2 ar
     3    1   26 1
     4    2    3 ar
     5    2   27 1
     6    3    4 ar
     7    3   25 1
     8    4    5 ar
     9    4    8 1
    10    5    6 ar
    11    5   28 1
    12    6    7 1
    13    8   13 ar
    14    8    9 ar
    15    9   10 ar
    16   10   24 ar
    17   10   11 ar
    18   11   12 ar
    19   11   21 ar
    20   12   13 ar
    21   12   14 1
    22   14   15 1
    23   14   29 1
    24   15   20 ar
    25   15   16 ar
    26   16   17 ar
    27   16   30 1
    28   17   18 ar
    29   17   31 1
    30   18   19 ar
    31   19   20 ar
    32   19   32 1
    33   20   33 1
    34   21   22 ar
    35   22   23 ar
    36   22   34 1
    37   23   24 ar
    38   23   35 1
@<TRIPOS>MOLECULE
CHEMBL125738
   31    33     0     0     0
SMALL
USER_CHARGES

@<TRIPOS>ATOM
      1 C1         -0.0184    1.5028    0.0103 C.3       1 <0>        -0.1065
      2 C2          0.0021   -0.0041    0.0020 C.ar      1 <0>         0.1407
      3 C3          0.0056   -0.6793   -1.2050 C.ar      1 <0>        -0.1633
      4 C4          0.0249   -2.0673   -1.2096 C.ar      1 <0>        -0.0652
      5 C5          0.0401   -2.7321    0.0036 C.ar      1 <0>        -0.1671
      6 C6          0.0355   -1.9878    1.1844 C.ar      1 <0>         0.1820
      7 N1          0.0218   -0.6595    1.1443 N.ar      1 <0>        -0.4489
      8 C7          0.0515   -2.6815    2.4880 C.2       1 <0>         0.1382
      9 C8          0.5168   -2.1681    3.6912 C.2       1 <0>        -0.1584
     10 C9          0.3416   -3.1651    4.6667 C.2       1 <0>         0.0659
     11 N2         -0.1931   -4.2133    4.0989 N.2       1 <0>        -0.2717
     12 N3         -0.3933   -3.9456    2.7398 N.pl3     1 <0>        -0.4627
     13 H1         -0.7790   -4.5538    2.0900 H         1 <0>         0.4422
     14 C10         1.0923   -0.8188    3.9071 C.ar      1 <0>         0.0166
     15 C11         2.1014   -0.3466    3.0692 C.ar      1 <0>        -0.0733
     16 C12         2.6336    0.9098    3.2745 C.ar      1 <0>        -0.1086
     17 C13         2.1671    1.7011    4.3103 C.ar      1 <0>        -0.0363
     18 C14         1.1653    1.2366    5.1456 C.ar      1 <0>        -0.1085
     19 C15         0.6221   -0.0158    4.9451 C.ar      1 <0>        -0.0955
     20 Cl1         2.8409    3.2809    4.5631 Cl        1 <0>        -0.0757
     21 H2          1.0042    1.8801    0.0026 H         1 <0>         0.0820
     22 H3         -0.5455    1.8639   -0.8728 H         1 <0>         0.0775
     23 H4         -0.5286    1.8543    0.9071 H         1 <0>         0.0802
     24 H5         -0.0069   -0.1316   -2.1357 H         1 <0>         0.1402
     25 H6          0.0276   -2.6161   -2.1398 H         1 <0>         0.1413
     26 H7          0.0549   -3.8115    0.0365 H         1 <0>         0.1326
     27 H8          0.6052   -3.0790    5.7105 H         1 <0>         0.1925
     28 H9          2.4663   -0.9632    2.2611 H         1 <0>         0.1180
     29 H10         3.4156    1.2765    2.6261 H         1 <0>         0.1289
     30 H11         0.8054    1.8575    5.9526 H         1 <0>         0.1324
     31 H12        -0.1626   -0.3753    5.5942 H         1 <0>         0.1306
@<TRIPOS>BOND
     1    1    2 1
     2    1   21 1
     3    1   22 1
     4    1   23 1
     5    2    7 ar
     6    2    3 ar
     7    3    4 ar
     8    3   24 1
     9    4    5 ar
    10    4   25 1
    11    5    6 ar
    12    5   26 1
    13    6    7 ar
    14    6    8 1
    15    8   12 1
    16    8    9 2
    17    9   10 1
    18    9   14 1
    19   10   11 2
    20   10   27 1
    21   11   12 1
    22   12   13 1
    23   14   19 ar
    24   14   15 ar
    25   15   16 ar
    26   15   28 1
    27   16   17 ar
    28   16   29 1
    29   17   18 ar
    30   17   20 1
    31   18   19 ar
    32   18   30 1
    33   19   31 1
@<TRIPOS>MOLECULE
CHEMBL125738__1
   31    33     0     0     0
SMALL
USER_CHARGES

@<TRIPOS>ATOM
      1 C1         -0.0184    1.5028    0.0103 C.3       1 <0>        -0.1043
      2 C2          0.0021   -0.0041    0.0020 C.ar      1 <0>         0.1339
      3 C3          0.0055   -0.6794   -1.2046 C.ar      1 <0>        -0.1644
      4 C4          0.0244   -2.0670   -1.2080 C.ar      1 <0>        -0.0724
      5 C5          0.0391   -2.7306    0.0066 C.ar      1 <0>        -0.1478
      6 C6          0.0346   -1.9865    1.1848 C.ar      1 <0>         0.1968
      7 N1          0.0218   -0.6599    1.1444 N.ar      1 <0>        -0.4542
      8 C7          0.0503   -2.6820    2.4937 C.2       1 <0>         0.1366
      9 C8          0.5279   -2.1485    3.7174 C.2       1 <0>        -0.1744
     10 C9          0.3630   -3.1052    4.6733 C.2       1 <0>         0.0751
     11 N2         -0.1896   -4.1863    4.0853 N.pl3     1 <0>        -0.4627
     12 N3         -0.3817   -3.9022    2.7280 N.2       1 <0>        -0.2707
     13 H1         -0.4178   -5.0185    4.5284 H         1 <0>         0.4467
     14 C10         1.1024   -0.7956    3.9199 C.ar      1 <0>         0.0179
     15 C11         2.1078   -0.3294    3.0751 C.ar      1 <0>        -0.0709
     16 C12         2.6389    0.9297    3.2676 C.ar      1 <0>        -0.1080
     17 C13         2.1745    1.7292    4.2980 C.ar      1 <0>        -0.0367
     18 C14         1.1762    1.2704    5.1402 C.ar      1 <0>        -0.1092
     19 C15         0.6343    0.0153    4.9520 C.ar      1 <0>        -0.0994
     20 Cl1         2.8466    3.3121    4.5350 Cl        1 <0>        -0.0760
     21 H2          1.0042    1.8801    0.0026 H         1 <0>         0.0796
     22 H3         -0.5455    1.8639   -0.8728 H         1 <0>         0.0758
     23 H4         -0.5286    1.8543    0.9071 H         1 <0>         0.0782
     24 H5         -0.0067   -0.1322   -2.1356 H         1 <0>         0.1375
     25 H6          0.0271   -2.6168   -2.1375 H         1 <0>         0.1392
     26 H7          0.0536   -3.8100    0.0407 H         1 <0>         0.1390
     27 H8          0.6279   -3.0143    5.7164 H         1 <0>         0.1859
     28 H9          2.4710   -0.9525    2.2713 H         1 <0>         0.1195
     29 H10         3.4184    1.2918    2.6137 H         1 <0>         0.1293
     30 H11         0.8174    1.8977    5.9428 H         1 <0>         0.1316
     31 H12        -0.1481   -0.3398    5.6064 H         1 <0>         0.1283
@<TRIPOS>BOND
     1    1    2 1
     2    1   21 1
     3    1   22 1
     4    1   23 1
     5    2    7 ar
     6    2    3 ar
     7    3    4 ar
     8    3   24 1
     9    4    5 ar
    10    4   25 1
    11    5    6 ar
    12    5   26 1
    13    6    7 ar
    14    6    8 1
    15    8   12 2
    16    8    9 1
    17    9   14 1
    18    9   10 2
    19   10   27 1
    20   10   11 1
    21   11   12 1
    22   11   13 1
    23   14   19 ar
    24   14   15 ar
    25   15   16 ar
    26   15   28 1
    27   16   17 ar
    28   16   29 1
    29   17   18 ar
    30   17   20 1
    31   18   19 ar
    32   18   30 1
    33   19   31 1
@<TRIPOS>MOLECULE
CHEMBL567706
   55    58     0     0     0
SMALL
USER_CHARGES

@<TRIPOS>ATOM
      1 C1         -0.0178    1.4648    0.0101 C.3       1 <0>        -0.0527
      2 N1          0.0021   -0.0041    0.0020 N.4       1 <0>        -0.3878
      3 C2          0.6897   -0.4778   -1.2066 C.3       1 <0>        -0.0474
      4 C3          0.7126   -0.4907    1.1921 C.3       1 <0>        -0.0121
      5 C4         -0.0711   -0.1034    2.4478 C.3       1 <0>        -0.1457
      6 C5          0.6689   -0.6103    3.6874 C.3       1 <0>        -0.0713
      7 C6         -0.1030   -0.2288    4.9242 C.ar      1 <0>        -0.1047
      8 C7          0.1459    0.9808    5.5477 C.ar      1 <0>        -0.1087
      9 C8         -0.5587    1.3373    6.6831 C.ar      1 <0>        -0.1164
     10 C9         -1.5147    0.4867    7.2008 C.ar      1 <0>        -0.0983
     11 C10        -1.7694   -0.7329    6.5769 C.ar      1 <0>        -0.0331
     12 C11        -1.0606   -1.0843    5.4295 C.ar      1 <0>        -0.0771
     13 C12        -2.7954   -1.6515    7.1289 C.ar      1 <0>         0.1578
     14 C13        -3.5772   -1.2440    8.2044 C.ar      1 <0>        -0.1524
     15 C14        -4.5382   -2.1207    8.7110 C.ar      1 <0>         0.0679
     16 C15        -4.6716   -3.3773    8.1098 C.ar      1 <0>        -0.1335
     17 C16        -3.8565   -3.7050    7.0461 C.ar      1 <0>         0.1065
     18 N2         -2.9616   -2.8521    6.5878 N.ar      1 <0>        -0.4837
     19 C17        -5.3949   -1.7308    9.8567 C.2       1 <0>        -0.1870
     20 C18        -4.9692   -1.2014   11.0385 C.2       1 <0>         0.0840
     21 N3         -6.0537   -0.9881   11.8102 N.pl3     1 <0>        -0.4580
     22 H1         -6.0477   -0.6174   12.7065 H         1 <0>         0.4494
     23 N4         -7.1900   -1.3921   11.0993 N.2       1 <0>        -0.2661
     24 C19        -6.8079   -1.8347    9.9213 C.2       1 <0>         0.1409
     25 C20        -7.6953   -2.3536    8.8533 C.ar      1 <0>         0.1895
     26 C21        -8.9418   -2.8815    9.1860 C.ar      1 <0>        -0.1370
     27 C22        -9.7590   -3.3621    8.1781 C.ar      1 <0>        -0.0738
     28 C23        -9.3030   -3.2993    6.8686 C.ar      1 <0>        -0.1616
     29 C24        -8.0555   -2.7628    6.6100 C.ar      1 <0>         0.1015
     30 N5         -7.2990   -2.3070    7.5879 N.ar      1 <0>        -0.4588
     31 H2          1.0047    1.8421    0.0024 H         1 <0>         0.1222
     32 H3         -0.5450    1.8259   -0.8730 H         1 <0>         0.1238
     33 H4         -0.5280    1.8163    0.9069 H         1 <0>         0.1246
     34 H5          1.7123   -0.1005   -1.2143 H         1 <0>         0.1216
     35 H6          0.7044   -1.5677   -1.2126 H         1 <0>         0.1234
     36 H7          0.1625   -0.1167   -2.0897 H         1 <0>         0.1239
     37 H8          0.8051   -1.5756    1.1418 H         1 <0>         0.1319
     38 H9          1.7055   -0.0428    1.2310 H         1 <0>         0.1301
     39 H10        -0.1636    0.9815    2.4982 H         1 <0>         0.0885
     40 H11        -1.0640   -0.5514    2.4090 H         1 <0>         0.0893
     41 H12         0.7614   -1.6952    3.6370 H         1 <0>         0.0841
     42 H13         1.6619   -0.1623    3.7262 H         1 <0>         0.0825
     43 H14         0.8934    1.6491    5.1465 H         1 <0>         0.1219
     44 H15        -0.3604    2.2829    7.1658 H         1 <0>         0.1288
     45 H16        -2.0638    0.7657    8.0879 H         1 <0>         0.1287
     46 H17        -1.2575   -2.0262    4.9392 H         1 <0>         0.1346
     47 H18        -3.4429   -0.2652    8.6408 H         1 <0>         0.1330
     48 H19        -5.4038   -4.0824    8.4745 H         1 <0>         0.1267
     49 H20        -3.9556   -4.6738    6.5791 H         1 <0>         0.1560
     50 H21        -3.9450   -0.9906   11.3087 H         1 <0>         0.1867
     51 H22        -9.2650   -2.9153   10.2160 H         1 <0>         0.1412
     52 H23       -10.7298   -3.7772    8.4053 H         1 <0>         0.1412
     53 H24        -9.9169   -3.6664    6.0594 H         1 <0>         0.1393
     54 H25        -7.6977   -2.7128    5.5922 H         1 <0>         0.1582
     55 H26        -0.9445   -0.3533    0.0092 H         1 <0>         0.4273
@<TRIPOS>BOND
     1    1    2 1
     2    1   31 1
     3    1   32 1
     4    1   33 1
     5    2    3 1
     6    2    4 1
     7    2   55 1
     8    3   34 1
     9    3   35 1
    10    3   36 1
    11    4    5 1
    12    4   37 1
    13    4   38 1
    14    5    6 1
    15    5   39 1
    16    5   40 1
    17    6    7 1
    18    6   41 1
    19    6   42 1
    20    7   12 ar
    21    7    8 ar
    22    8    9 ar
    23    8   43 1
    24    9   10 ar
    25    9   44 1
    26   10   11 ar
    27   10   45 1
    28   11   12 ar
    29   11   13 1
    30   12   46 1
    31   13   18 ar
    32   13   14 ar
    33   14   15 ar
    34   14   47 1
    35   15   16 ar
    36   15   19 1
    37   16   17 ar
    38   16   48 1
    39   17   18 ar
    40   17   49 1
    41   19   24 1
    42   19   20 2
    43   20   21 1
    44   20   50 1
    45   21   22 1
    46   21   23 1
    47   23   24 2
    48   24   25 1
    49   25   30 ar
    50   25   26 ar
    51   26   27 ar
    52   26   51 1
    53   27   28 ar
    54   27   52 1
    55   28   29 ar
    56   28   53 1
    57   29   30 ar
    58   29   54 1
@<TRIPOS>MOLECULE
CHEMBL567706__1
   55    58     0     0     0
SMALL
USER_CHARGES

@<TRIPOS>ATOM
      1 C1         -0.0178    1.4648    0.0101 C.3       1 <0>        -0.0527
      2 N1          0.0021   -0.0041    0.0020 N.4       1 <0>        -0.3878
      3 C2          0.6897   -0.4778   -1.2066 C.3       1 <0>        -0.0474
      4 C3          0.7126   -0.4907    1.1921 C.3       1 <0>        -0.0122
      5 C4         -0.0711   -0.1034    2.4478 C.3       1 <0>        -0.1456
      6 C5          0.6689   -0.6103    3.6874 C.3       1 <0>        -0.0712
      7 C6         -0.1030   -0.2288    4.9242 C.ar      1 <0>        -0.1053
      8 C7          0.1458    0.9809    5.5476 C.ar      1 <0>        -0.1083
      9 C8         -0.5588    1.3374    6.6831 C.ar      1 <0>        -0.1161
     10 C9         -1.5150    0.4869    7.2005 C.ar      1 <0>        -0.0974
     11 C10        -1.7700   -0.7325    6.5764 C.ar      1 <0>        -0.0339
     12 C11        -1.0606   -1.0843    5.4295 C.ar      1 <0>        -0.0771
     13 C12        -2.7965   -1.6508    7.1279 C.ar      1 <0>         0.1588
     14 C13        -3.5785   -1.2430    8.2032 C.ar      1 <0>        -0.1487
     15 C14        -4.5400   -2.1199    8.7098 C.ar      1 <0>         0.0672
     16 C15        -4.6733   -3.3768    8.1083 C.ar      1 <0>        -0.1368
     17 C16        -3.8578   -3.7043    7.0448 C.ar      1 <0>         0.1063
     18 N2         -2.9630   -2.8512    6.5866 N.ar      1 <0>        -0.4835
     19 C17        -5.3965   -1.7302    9.8546 C.2       1 <0>        -0.1724
     20 C18        -4.9594   -1.1893   11.0767 C.2       1 <0>         0.0696
     21 N3         -6.0027   -0.9754   11.8332 N.2       1 <0>        -0.2665
     22 H1         -8.0654   -1.3111   11.4774 H         1 <0>         0.4447
     23 N4         -7.1564   -1.3644   11.1430 N.pl3     1 <0>        -0.4585
     24 C19        -6.7808   -1.8258    9.9176 C.2       1 <0>         0.1486
     25 C20        -7.6755   -2.3346    8.8581 C.ar      1 <0>         0.1729
     26 C21        -8.9255   -2.8551    9.1978 C.ar      1 <0>        -0.1553
     27 C22        -9.7517   -3.3275    8.1940 C.ar      1 <0>        -0.0668
     28 C23        -9.3031   -3.2653    6.8816 C.ar      1 <0>        -0.1592
     29 C24        -8.0531   -2.7372    6.6156 C.ar      1 <0>         0.1078
     30 N5         -7.2868   -2.2885    7.5885 N.ar      1 <0>        -0.4525
     31 H2          1.0047    1.8421    0.0024 H         1 <0>         0.1223
     32 H3         -0.5450    1.8259   -0.8730 H         1 <0>         0.1237
     33 H4         -0.5280    1.8163    0.9069 H         1 <0>         0.1247
     34 H5          1.7123   -0.1005   -1.2143 H         1 <0>         0.1217
     35 H6          0.7044   -1.5677   -1.2126 H         1 <0>         0.1234
     36 H7          0.1625   -0.1167   -2.0897 H         1 <0>         0.1238
     37 H8          0.8051   -1.5756    1.1418 H         1 <0>         0.1319
     38 H9          1.7055   -0.0428    1.2310 H         1 <0>         0.1302
     39 H10        -0.1636    0.9815    2.4982 H         1 <0>         0.0886
     40 H11        -1.0640   -0.5514    2.4090 H         1 <0>         0.0890
     41 H12         0.7614   -1.6952    3.6370 H         1 <0>         0.0839
     42 H13         1.6619   -0.1623    3.7262 H         1 <0>         0.0826
     43 H14         0.8934    1.6492    5.1464 H         1 <0>         0.1219
     44 H15        -0.3603    2.2828    7.1660 H         1 <0>         0.1292
     45 H16        -2.0641    0.7659    8.0876 H         1 <0>         0.1298
     46 H17        -1.2570   -2.0265    4.9396 H         1 <0>         0.1343
     47 H18        -3.4442   -0.2643    8.6396 H         1 <0>         0.1351
     48 H19        -5.4056   -4.0820    8.4727 H         1 <0>         0.1253
     49 H20        -3.9567   -4.6731    6.5777 H         1 <0>         0.1556
     50 H21        -3.9333   -0.9852   11.3450 H         1 <0>         0.1930
     51 H22        -9.2429   -2.8887   10.2296 H         1 <0>         0.1350
     52 H23       -10.7241   -3.7361    8.4261 H         1 <0>         0.1436
     53 H24        -9.9247   -3.6265    6.0757 H         1 <0>         0.1422
     54 H25        -7.7021   -2.6877    5.5954 H         1 <0>         0.1616
     55 H26        -0.9445   -0.3533    0.0092 H         1 <0>         0.4272
@<TRIPOS>BOND
     1    1    2 1
     2    1   31 1
     3    1   32 1
     4    1   33 1
     5    2    3 1
     6    2    4 1
     7    2   55 1
     8    3   34 1
     9    3   35 1
    10    3   36 1
    11    4    5 1
    12    4   37 1
    13    4   38 1
    14    5    6 1
    15    5   39 1
    16    5   40 1
    17    6    7 1
    18    6   41 1
    19    6   42 1
    20    7   12 ar
    21    7    8 ar
    22    8    9 ar
    23    8   43 1
    24    9   10 ar
    25    9   44 1
    26   10   11 ar
    27   10   45 1
    28   11   12 ar
    29   11   13 1
    30   12   46 1
    31   13   18 ar
    32   13   14 ar
    33   14   15 ar
    34   14   47 1
    35   15   16 ar
    36   15   19 1
    37   16   17 ar
    38   16   48 1
    39   17   18 ar
    40   17   49 1
    41   19   20 1
    42   19   24 2
    43   20   21 2
    44   20   50 1
    45   21   23 1
    46   22   23 1
    47   23   24 1
    48   24   25 1
    49   25   30 ar
    50   25   26 ar
    51   26   27 ar
    52   26   51 1
    53   27   28 ar
    54   27   52 1
    55   28   29 ar
    56   28   53 1
    57   29   30 ar
    58   29   54 1
@<TRIPOS>MOLECULE
CHEMBL583549
   45    49     0     0     0
SMALL
USER_CHARGES

@<TRIPOS>ATOM
      1 C1         -0.0167    1.3785    0.0096 C.ar      1 <0>        -0.0765
      2 C2          1.1943    2.0586    0.0017 C.ar      1 <0>        -0.1793
      3 C3          2.3756    1.3413   -0.0134 C.ar      1 <0>         0.1001
      4 N1          2.3675    0.0235   -0.0209 N.ar      1 <0>        -0.4694
      5 C4          1.2315   -0.6653   -0.0137 C.ar      1 <0>         0.2157
      6 C5          0.0021   -0.0041    0.0020 C.ar      1 <0>        -0.1422
      7 C6          1.2696   -2.1435   -0.0225 C.2       1 <0>         0.0598
      8 C7          2.3095   -2.9376   -0.5083 C.2       1 <0>         0.0494
      9 N2          1.9194   -4.2432   -0.3156 N.pl3     1 <0>        -0.5544
     10 C8          0.6814   -4.2117    0.2688 C.2       1 <0>         0.2874
     11 N3          0.3145   -2.9617    0.4397 N.2       1 <0>        -0.4599
     12 C9         -0.1127   -5.3948    0.6515 C.ar      1 <0>        -0.0468
     13 C10         0.3937   -6.6792    0.4273 C.ar      1 <0>        -0.1199
     14 C11        -0.3408   -7.7744    0.7813 C.ar      1 <0>        -0.0859
     15 C12        -1.6005   -7.6117    1.3691 C.ar      1 <0>        -0.1119
     16 C13        -2.1067   -6.3262    1.5937 C.ar      1 <0>        -0.0877
     17 C14        -1.3693   -5.2316    1.2438 C.ar      1 <0>        -0.0855
     18 C15        -2.3935   -8.7927    1.7508 C.2       1 <0>         0.5167
     19 O1         -1.9510   -9.9162    1.5540 O.co2     1 <0>        -0.6848
     20 O2         -3.4946   -8.6503    2.2646 O.co2     1 <0>        -0.6828
     21 C16         3.5232   -2.4895   -1.0844 C.2       1 <0>        -0.0310
     22 C17         3.5094   -1.9934   -2.3415 C.2       1 <0>        -0.0821
     23 C18         4.7167   -1.5668   -2.9608 C.2       1 <0>        -0.1101
     24 C19         5.8675   -1.9520   -2.4042 C.2       1 <0>         0.0118
     25 C20         5.9645   -2.8940   -1.2110 C.3       1 <0>         0.0854
     26 C21         4.7925   -2.5737   -0.2756 C.3       1 <0>        -0.0813
     27 O3          7.2155   -2.5511   -0.5918 O.3       1 <0>        -0.3730
     28 C22         7.7914   -1.5205   -1.4209 C.3       1 <0>         0.2035
     29 O4          7.1528   -1.6547   -2.7125 O.3       1 <0>        -0.3104
     30 H1         -0.9523    1.9177    0.0259 H         1 <0>         0.1345
     31 H2          1.2127    3.1384    0.0070 H         1 <0>         0.1319
     32 H3          3.3184    1.8680   -0.0196 H         1 <0>         0.1536
     33 H4         -0.9212   -0.5644    0.0078 H         1 <0>         0.1411
     34 H5          1.3658   -6.8046   -0.0263 H         1 <0>         0.1093
     35 H6          0.0501   -8.7661    0.6075 H         1 <0>         0.1321
     36 H7         -3.0787   -6.2002    2.0473 H         1 <0>         0.1338
     37 H8         -1.7580   -4.2397    1.4208 H         1 <0>         0.1299
     38 H9          2.5756   -1.9200   -2.8792 H         1 <0>         0.1254
     39 H10         4.7030   -0.9536   -3.8498 H         1 <0>         0.1379
     40 H11         5.9437   -3.9364   -1.5290 H         1 <0>         0.1101
     41 H12         4.9702   -1.6208    0.2229 H         1 <0>         0.1005
     42 H13         4.6968   -3.3627    0.4704 H         1 <0>         0.0834
     43 H14         7.5833   -0.5374   -0.9984 H         1 <0>         0.0772
     44 H15         8.8669   -1.6704   -1.5152 H         1 <0>         0.1204
     45 H16         2.4259   -5.0366   -0.5499 H         1 <0>         0.4240
@<TRIPOS>BOND
     1    1    6 ar
     2    1    2 ar
     3    1   30 1
     4    2    3 ar
     5    2   31 1
     6    3    4 ar
     7    3   32 1
     8    4    5 ar
     9    5    6 ar
    10    5    7 1
    11    6   33 1
    12    7   11 1
    13    7    8 2
    14    8    9 1
    15    8   21 1
    16    9   10 1
    17    9   45 1
    18   10   11 2
    19   10   12 1
    20   12   17 ar
    21   12   13 ar
    22   13   14 ar
    23   13   34 1
    24   14   15 ar
    25   14   35 1
    26   15   16 ar
    27   15   18 1
    28   16   17 ar
    29   16   36 1
    30   17   37 1
    31   18   19 2
    32   18   20 1
    33   21   26 1
    34   21   22 2
    35   22   23 1
    36   22   38 1
    37   23   24 2
    38   23   39 1
    39   24   29 1
    40   24   25 1
    41   25   26 1
    42   25   27 1
    43   25   40 1
    44   26   41 1
    45   26   42 1
    46   27   28 1
    47   28   29 1
    48   28   43 1
    49   28   44 1
@<TRIPOS>MOLECULE
CHEMBL583549__1
   45    49     0     0     0
SMALL
USER_CHARGES

@<TRIPOS>ATOM
      1 C1          0.2320    1.4084    0.5281 C.ar      1 <0>        -0.0670
      2 C2          1.4692    2.0357    0.4523 C.ar      1 <0>        -0.1794
      3 C3          2.6068    1.2742    0.2578 C.ar      1 <0>         0.1113
      4 N1          2.5333   -0.0360    0.1433 N.ar      1 <0>        -0.4580
      5 C4          1.3692   -0.6767    0.2099 C.ar      1 <0>         0.2103
      6 C5          0.1801    0.0326    0.4055 C.ar      1 <0>        -0.1717
      7 C6          1.3328   -2.1431    0.0767 C.2       1 <0>         0.0090
      8 C7          2.2570   -2.9448   -0.5891 C.2       1 <0>         0.0956
      9 N2          1.8501   -4.2194   -0.4683 N.2       1 <0>        -0.4661
     10 C8          0.7363   -4.2619    0.2273 C.2       1 <0>         0.3003
     11 N3          0.3822   -2.9950    0.5902 N.pl3     1 <0>        -0.5537
     12 H1         -0.3955   -2.7420    1.1117 H         1 <0>         0.4225
     13 C9         -0.0126   -5.4890    0.5673 C.ar      1 <0>        -0.0495
     14 C10        -1.1928   -5.4036    1.3109 C.ar      1 <0>        -0.1202
     15 C11        -1.8883   -6.5419    1.6268 C.ar      1 <0>        -0.0861
     16 C12        -1.4164   -7.7893    1.2046 C.ar      1 <0>        -0.1110
     17 C13        -0.2349   -7.8741    0.4603 C.ar      1 <0>        -0.0873
     18 C14         0.4565   -6.7344    0.1403 C.ar      1 <0>        -0.0835
     19 C15        -2.1633   -9.0137    1.5442 C.2       1 <0>         0.5169
     20 O1         -3.1961   -8.9392    2.1954 O.co2     1 <0>        -0.6846
     21 O2         -1.7504  -10.1043    1.1749 O.co2     1 <0>        -0.6818
     22 C16         3.4588   -2.4807   -1.2955 C.2       1 <0>        -0.0008
     23 C17         3.3208   -1.6417   -2.3401 C.2       1 <0>        -0.1002
     24 C18         4.5081   -1.1979   -3.0840 C.2       1 <0>        -0.1052
     25 C19         5.6371   -1.8813   -2.8915 C.2       1 <0>         0.0014
     26 C20         5.7360   -3.1359   -2.0339 C.3       1 <0>         0.0888
     27 C21         4.8111   -2.9519   -0.8269 C.3       1 <0>        -0.0802
     28 O3          7.1116   -3.1716   -1.6181 O.3       1 <0>        -0.3741
     29 C22         7.7381   -2.0324   -2.2430 C.3       1 <0>         0.2037
     30 O4          6.8920   -1.6867   -3.3649 O.3       1 <0>        -0.3123
     31 H2         -0.6692    1.9829    0.6840 H         1 <0>         0.1362
     32 H3          1.5419    3.1094    0.5441 H         1 <0>         0.1355
     33 H4          3.5693    1.7606    0.1986 H         1 <0>         0.1590
     34 H5         -0.7651   -0.4870    0.4601 H         1 <0>         0.1296
     35 H6         -1.5569   -4.4405    1.6371 H         1 <0>         0.1089
     36 H7         -2.8002   -6.4757    2.2017 H         1 <0>         0.1325
     37 H8          0.1300   -8.8368    0.1341 H         1 <0>         0.1348
     38 H9          1.3661   -6.7993   -0.4384 H         1 <0>         0.1316
     39 H10         2.3397   -1.2961   -2.6307 H         1 <0>         0.1205
     40 H11         4.4679   -0.3548   -3.7578 H         1 <0>         0.1362
     41 H12         5.4660   -4.0241   -2.6051 H         1 <0>         0.1127
     42 H13         5.2374   -2.2130   -0.1483 H         1 <0>         0.0906
     43 H14         4.7029   -3.9027   -0.3050 H         1 <0>         0.0921
     44 H15         7.7914   -1.2001   -1.5412 H         1 <0>         0.0743
     45 H16         8.7366   -2.2961   -2.5917 H         1 <0>         0.1185
@<TRIPOS>BOND
     1    1    6 ar
     2    1    2 ar
     3    1   31 1
     4    2    3 ar
     5    2   32 1
     6    3    4 ar
     7    3   33 1
     8    4    5 ar
     9    5    6 ar
    10    5    7 1
    11    6   34 1
    12    7   11 1
    13    7    8 2
    14    8    9 1
    15    8   22 1
    16    9   10 2
    17   10   11 1
    18   10   13 1
    19   11   12 1
    20   13   18 ar
    21   13   14 ar
    22   14   15 ar
    23   14   35 1
    24   15   16 ar
    25   15   36 1
    26   16   17 ar
    27   16   19 1
    28   17   18 ar
    29   17   37 1
    30   18   38 1
    31   19   20 2
    32   19   21 1
    33   22   27 1
    34   22   23 2
    35   23   24 1
    36   23   39 1
    37   24   25 2
    38   24   40 1
    39   25   30 1
    40   25   26 1
    41   26   27 1
    42   26   28 1
    43   26   41 1
    44   27   42 1
    45   27   43 1
    46   28   29 1
    47   29   30 1
    48   29   44 1
    49   29   45 1
@<TRIPOS>MOLECULE
CHEMBL583549__2
   45    49     0     0     0
SMALL
USER_CHARGES

@<TRIPOS>ATOM
      1 C1         -0.0167    1.3785    0.0096 C.ar      1 <0>        -0.0761
      2 C2          1.1943    2.0586    0.0017 C.ar      1 <0>        -0.1796
      3 C3          2.3756    1.3413   -0.0134 C.ar      1 <0>         0.0987
      4 N1          2.3675    0.0235   -0.0209 N.ar      1 <0>        -0.4702
      5 C4          1.2315   -0.6653   -0.0137 C.ar      1 <0>         0.2186
      6 C5          0.0021   -0.0041    0.0020 C.ar      1 <0>        -0.1423
      7 C6          1.2696   -2.1435   -0.0225 C.2       1 <0>         0.0555
      8 C7          2.3095   -2.9376   -0.5083 C.2       1 <0>         0.0592
      9 N2          1.9194   -4.2432   -0.3156 N.pl3     1 <0>        -0.5552
     10 C8          0.6814   -4.2117    0.2688 C.2       1 <0>         0.2844
     11 N3          0.3145   -2.9617    0.4397 N.2       1 <0>        -0.4596
     12 C9         -0.1127   -5.3948    0.6515 C.ar      1 <0>        -0.0457
     13 C10         0.3937   -6.6792    0.4273 C.ar      1 <0>        -0.1203
     14 C11        -0.3408   -7.7744    0.7813 C.ar      1 <0>        -0.0858
     15 C12        -1.6005   -7.6117    1.3691 C.ar      1 <0>        -0.1125
     16 C13        -2.1067   -6.3262    1.5937 C.ar      1 <0>        -0.0877
     17 C14        -1.3693   -5.2316    1.2438 C.ar      1 <0>        -0.0861
     18 C15        -2.3935   -8.7927    1.7508 C.2       1 <0>         0.5165
     19 O1         -1.9510   -9.9162    1.5540 O.co2     1 <0>        -0.6849
     20 O2         -3.4946   -8.6503    2.2646 O.co2     1 <0>        -0.6829
     21 C16         3.5232   -2.4895   -1.0844 C.2       1 <0>        -0.0587
     22 C17         3.5127   -1.9927   -2.3415 C.2       1 <0>        -0.0596
     23 C18         4.7086   -1.5081   -2.9363 C.2       1 <0>        -0.1581
     24 C19         5.7525   -1.2616   -2.1329 C.2       1 <0>         0.0476
     25 C20         5.6856   -1.3791   -0.6143 C.3       1 <0>         0.0815
     26 C21         4.7948   -2.5723   -0.2782 C.3       1 <0>        -0.0622
     27 O3          7.0616   -1.6660   -0.2743 O.3       1 <0>        -0.3654
     28 C22         7.7771   -0.8357   -1.2213 C.3       1 <0>         0.2005
     29 O4          7.0078   -0.8741   -2.4375 O.3       1 <0>        -0.3117
     30 H1         -0.9523    1.9177    0.0259 H         1 <0>         0.1342
     31 H2          1.2127    3.1384    0.0070 H         1 <0>         0.1314
     32 H3          3.3184    1.8680   -0.0196 H         1 <0>         0.1521
     33 H4         -0.9212   -0.5644    0.0078 H         1 <0>         0.1410
     34 H5          1.3658   -6.8046   -0.0263 H         1 <0>         0.1093
     35 H6          0.0501   -8.7661    0.6075 H         1 <0>         0.1318
     36 H7         -3.0787   -6.2002    2.0473 H         1 <0>         0.1335
     37 H8         -1.7580   -4.2397    1.4208 H         1 <0>         0.1297
     38 H9          2.5878   -1.9642   -2.8984 H         1 <0>         0.1240
     39 H10         4.7743   -1.3440   -4.0018 H         1 <0>         0.1347
     40 H11         5.3240   -0.4626   -0.1481 H         1 <0>         0.1160
     41 H12         4.5536   -2.5594    0.7847 H         1 <0>         0.0904
     42 H13         5.3210   -3.4953   -0.5219 H         1 <0>         0.0865
     43 H14         7.8427    0.1870   -0.8501 H         1 <0>         0.0818
     44 H15         8.7751   -1.2380   -1.3950 H         1 <0>         0.1217
     45 H16         2.4259   -5.0366   -0.5499 H         1 <0>         0.4241
@<TRIPOS>BOND
     1    1    6 ar
     2    1    2 ar
     3    1   30 1
     4    2    3 ar
     5    2   31 1
     6    3    4 ar
     7    3   32 1
     8    4    5 ar
     9    5    6 ar
    10    5    7 1
    11    6   33 1
    12    7   11 1
    13    7    8 2
    14    8    9 1
    15    8   21 1
    16    9   10 1
    17    9   45 1
    18   10   11 2
    19   10   12 1
    20   12   17 ar
    21   12   13 ar
    22   13   14 ar
    23   13   34 1
    24   14   15 ar
    25   14   35 1
    26   15   16 ar
    27   15   18 1
    28   16   17 ar
    29   16   36 1
    30   17   37 1
    31   18   19 2
    32   18   20 1
    33   21   26 1
    34   21   22 2
    35   22   23 1
    36   22   38 1
    37   23   24 2
    38   23   39 1
    39   24   29 1
    40   24   25 1
    41   25   26 1
    42   25   27 1
    43   25   40 1
    44   26   41 1
    45   26   42 1
    46   27   28 1
    47   28   29 1
    48   28   43 1
    49   28   44 1
@<TRIPOS>MOLECULE
CHEMBL583549__3
   45    49     0     0     0
SMALL
USER_CHARGES

@<TRIPOS>ATOM
      1 C1          0.2186    1.4081    0.5050 C.ar      1 <0>        -0.0667
      2 C2          1.4543    2.0382    0.4286 C.ar      1 <0>        -0.1797
      3 C3          2.5942    1.2789    0.2396 C.ar      1 <0>         0.1109
      4 N1          2.5244   -0.0321    0.1308 N.ar      1 <0>        -0.4585
      5 C4          1.3619   -0.6755    0.1982 C.ar      1 <0>         0.2123
      6 C5          0.1706    0.0315    0.3885 C.ar      1 <0>        -0.1721
      7 C6          1.3295   -2.1426    0.0715 C.2       1 <0>         0.0068
      8 C7          2.2570   -2.9448   -0.5891 C.2       1 <0>         0.1012
      9 N2          1.8532   -4.2199   -0.4633 N.2       1 <0>        -0.4668
     10 C8          0.7384   -4.2622    0.2306 C.2       1 <0>         0.2991
     11 N3          0.3803   -2.9946    0.5872 N.pl3     1 <0>        -0.5540
     12 H1         -0.3990   -2.7414    1.1062 H         1 <0>         0.4222
     13 C9         -0.0079   -5.4898    0.5748 C.ar      1 <0>        -0.0490
     14 C10        -1.1897   -5.4041    1.3160 C.ar      1 <0>        -0.1204
     15 C11        -1.8827   -6.5429    1.6357 C.ar      1 <0>        -0.0862
     16 C12        -1.4068   -7.7909    1.2200 C.ar      1 <0>        -0.1114
     17 C13        -0.2238   -7.8759    0.4781 C.ar      1 <0>        -0.0873
     18 C14         0.4652   -6.7359    0.1542 C.ar      1 <0>        -0.0837
     19 C15        -2.1510   -9.0157    1.5637 C.2       1 <0>         0.5170
     20 O1         -3.1852   -8.9411    2.2128 O.co2     1 <0>        -0.6849
     21 O2         -1.7346  -10.1068    1.2000 O.co2     1 <0>        -0.6820
     22 C16         3.4588   -2.4807   -1.2955 C.2       1 <0>        -0.0209
     23 C17         3.3241   -1.6415   -2.3407 C.2       1 <0>        -0.0821
     24 C18         4.5154   -1.1394   -3.0366 C.2       1 <0>        -0.1466
     25 C19         5.6941   -1.2782   -2.4173 C.2       1 <0>         0.0326
     26 C20         5.8339   -1.8302   -1.0035 C.3       1 <0>         0.0815
     27 C21         4.8131   -2.9500   -0.8294 C.3       1 <0>        -0.0612
     28 O3          7.1758   -2.3693   -1.0217 O.3       1 <0>        -0.3649
     29 C22         7.8746   -1.3922   -1.8309 C.3       1 <0>         0.2013
     30 O4          6.9388   -0.9792   -2.8438 O.3       1 <0>        -0.3144
     31 H2         -0.6843    1.9808    0.6567 H         1 <0>         0.1359
     32 H3          1.5240    3.1125    0.5157 H         1 <0>         0.1351
     33 H4          3.5555    1.7675    0.1800 H         1 <0>         0.1578
     34 H5         -0.7734   -0.4903    0.4437 H         1 <0>         0.1295
     35 H6         -1.5568   -4.4406    1.6372 H         1 <0>         0.1089
     36 H7         -2.7957   -6.4765    2.2088 H         1 <0>         0.1323
     37 H8          0.1443   -8.8391    0.1568 H         1 <0>         0.1347
     38 H9          1.3759   -6.8009   -0.4226 H         1 <0>         0.1316
     39 H10         2.3401   -1.3385   -2.6668 H         1 <0>         0.1195
     40 H11         4.4437   -0.6767   -4.0098 H         1 <0>         0.1335
     41 H12         5.7097   -1.0538   -0.2485 H         1 <0>         0.1089
     42 H13         4.7578   -3.2311    0.2223 H         1 <0>         0.0879
     43 H14         5.1214   -3.8128   -1.4199 H         1 <0>         0.0931
     44 H15         8.1681   -0.5387   -1.2197 H         1 <0>         0.0790
     45 H16         8.7525   -1.8447   -2.2921 H         1 <0>         0.1202
@<TRIPOS>BOND
     1    1    6 ar
     2    1    2 ar
     3    1   31 1
     4    2    3 ar
     5    2   32 1
     6    3    4 ar
     7    3   33 1
     8    4    5 ar
     9    5    6 ar
    10    5    7 1
    11    6   34 1
    12    7   11 1
    13    7    8 2
    14    8    9 1
    15    8   22 1
    16    9   10 2
    17   10   11 1
    18   10   13 1
    19   11   12 1
    20   13   18 ar
    21   13   14 ar
    22   14   15 ar
    23   14   35 1
    24   15   16 ar
    25   15   36 1
    26   16   17 ar
    27   16   19 1
    28   17   18 ar
    29   17   37 1
    30   18   38 1
    31   19   20 2
    32   19   21 1
    33   22   27 1
    34   22   23 2
    35   23   24 1
    36   23   39 1
    37   24   25 2
    38   24   40 1
    39   25   30 1
    40   25   26 1
    41   26   27 1
    42   26   28 1
    43   26   41 1
    44   27   42 1
    45   27   43 1
    46   28   29 1
    47   29   30 1
    48   29   44 1
    49   29   45 1
@<TRIPOS>MOLECULE
CHEMBL566877
   53    57     0     0     0
SMALL
USER_CHARGES

@<TRIPOS>ATOM
      1 C1         -0.0184    1.5028    0.0103 C.3       1 <0>        -0.1024
      2 C2          0.0021   -0.0041    0.0020 C.ar      1 <0>         0.1307
      3 C3          0.0056   -0.6791   -1.2045 C.ar      1 <0>        -0.1752
      4 C4          0.0249   -2.0677   -1.2094 C.ar      1 <0>        -0.0737
      5 C5          0.0401   -2.7326    0.0031 C.ar      1 <0>        -0.1487
      6 C6          0.0355   -1.9884    1.1846 C.ar      1 <0>         0.2146
      7 N1          0.0218   -0.6597    1.1447 N.ar      1 <0>        -0.4669
      8 C7          0.0510   -2.6829    2.4887 C.2       1 <0>         0.0887
      9 C8          0.5182   -2.1638    3.6895 C.2       1 <0>         0.0329
     10 N2          0.3380   -3.1573    4.6354 N.pl3     1 <0>        -0.5853
     11 C9         -0.2197   -4.2247    3.9972 C.2       1 <0>         0.4984
     12 N3         -0.3911   -3.9338    2.7308 N.2       1 <0>        -0.5179
     13 N4         -0.5575   -5.4250    4.5939 N.pl3     1 <0>        -0.7099
     14 C10        -0.3200   -5.6235    6.0259 C.3       1 <0>         0.1683
     15 C11        -0.7725   -7.0050    6.4233 C.ar      1 <0>        -0.1030
     16 C12        -2.0757   -7.2094    6.8404 C.ar      1 <0>        -0.0936
     17 C13        -2.4964   -8.4718    7.2052 C.ar      1 <0>        -0.0980
     18 C14        -1.6043   -9.5435    7.1527 C.ar      1 <0>         0.0247
     19 C15        -0.2913   -9.3305    6.7311 C.ar      1 <0>        -0.0981
     20 C16         0.1154   -8.0642    6.3640 C.ar      1 <0>        -0.0936
     21 C17        -2.0343  -10.8561    7.5303 C.1       1 <0>        -0.1626
     22 C18        -2.3868  -11.9323    7.8399 C.1       1 <0>        -0.1602
     23 C19         1.0694   -0.8750    3.9029 C.2       1 <0>        -0.0294
     24 C20         2.3232   -0.6184    3.4723 C.2       1 <0>        -0.0797
     25 C21         2.9180    0.6554    3.7021 C.2       1 <0>        -0.1134
     26 C22         2.3413    1.4536    4.6013 C.2       1 <0>         0.0141
     27 C23         1.1506    1.0495    5.4612 C.3       1 <0>         0.0851
     28 C24         0.2367    0.1715    4.5986 C.3       1 <0>        -0.0800
     29 O1          0.5060    2.2944    5.7784 O.3       1 <0>        -0.3736
     30 C25         1.3187    3.3207    5.1724 C.3       1 <0>         0.2036
     31 O2          2.6234    2.7247    4.9806 O.3       1 <0>        -0.3099
     32 H1          1.0042    1.8801    0.0026 H         1 <0>         0.0770
     33 H2         -0.5455    1.8639   -0.8728 H         1 <0>         0.0742
     34 H3         -0.5286    1.8543    0.9071 H         1 <0>         0.0746
     35 H4         -0.0069   -0.1312   -2.1352 H         1 <0>         0.1329
     36 H5          0.0276   -2.6163   -2.1396 H         1 <0>         0.1351
     37 H6          0.0549   -3.8120    0.0356 H         1 <0>         0.1386
     38 H7         -0.9519   -6.1357    4.0646 H         1 <0>         0.4234
     39 H8          0.7440   -5.5152    6.2361 H         1 <0>         0.0702
     40 H9         -0.8800   -4.8804    6.5935 H         1 <0>         0.0700
     41 H10        -2.7650   -6.3790    6.8809 H         1 <0>         0.1312
     42 H11        -3.5138   -8.6301    7.5310 H         1 <0>         0.1305
     43 H12         0.4039  -10.1559    6.6883 H         1 <0>         0.1304
     44 H13         1.1302   -7.8988    6.0336 H         1 <0>         0.1312
     45 H14        -2.7021  -12.8948    8.1169 H         1 <0>         0.2264
     46 H15         2.8786   -1.3837    2.9507 H         1 <0>         0.1240
     47 H16         3.8043    0.9634    3.1675 H         1 <0>         0.1378
     48 H17         1.4735    0.5221    6.3587 H         1 <0>         0.1081
     49 H18        -0.2692    0.7872    3.8550 H         1 <0>         0.0993
     50 H19        -0.5038   -0.3155    5.2331 H         1 <0>         0.0807
     51 H20         0.8959    3.6179    4.2127 H         1 <0>         0.0782
     52 H21         1.3925    4.1828    5.8353 H         1 <0>         0.1216
     53 H22         0.5662   -3.1042    5.5767 H         1 <0>         0.4185
@<TRIPOS>BOND
     1    1    2 1
     2    1   32 1
     3    1   33 1
     4    1   34 1
     5    2    7 ar
     6    2    3 ar
     7    3    4 ar
     8    3   35 1
     9    4    5 ar
    10    4   36 1
    11    5    6 ar
    12    5   37 1
    13    6    7 ar
    14    6    8 1
    15    8   12 1
    16    8    9 2
    17    9   10 1
    18    9   23 1
    19   10   11 1
    20   10   53 1
    21   11   12 2
    22   11   13 1
    23   13   14 1
    24   13   38 1
    25   14   15 1
    26   14   39 1
    27   14   40 1
    28   15   20 ar
    29   15   16 ar
    30   16   17 ar
    31   16   41 1
    32   17   18 ar
    33   17   42 1
    34   18   19 ar
    35   18   21 1
    36   19   20 ar
    37   19   43 1
    38   20   44 1
    39   21   22 3
    40   22   45 1
    41   23   28 1
    42   23   24 2
    43   24   25 1
    44   24   46 1
    45   25   26 2
    46   25   47 1
    47   26   31 1
    48   26   27 1
    49   27   28 1
    50   27   29 1
    51   27   48 1
    52   28   49 1
    53   28   50 1
    54   29   30 1
    55   30   31 1
    56   30   51 1
    57   30   52 1
@<TRIPOS>MOLECULE
CHEMBL566877__1
   53    57     0     0     0
SMALL
USER_CHARGES

@<TRIPOS>ATOM
      1 C1         -0.2249    1.6631    0.2497 C.3       1 <0>        -0.1052
      2 C2         -0.2776    0.1588    0.1758 C.ar      1 <0>         0.1432
      3 C3         -0.4556   -0.4573   -1.0488 C.ar      1 <0>        -0.1803
      4 C4         -0.5036   -1.8444   -1.1157 C.ar      1 <0>        -0.0629
      5 C5         -0.3706   -2.5674    0.0545 C.ar      1 <0>        -0.1830
      6 C6         -0.1931   -1.8808    1.2603 C.ar      1 <0>         0.2192
      7 N1         -0.1480   -0.5504    1.2786 N.ar      1 <0>        -0.4611
      8 C7         -0.0503   -2.6342    2.5161 C.2       1 <0>        -0.0089
      9 C8          0.6005   -2.2169    3.6695 C.2       1 <0>         0.1287
     10 N2          0.4942   -3.2093    4.5776 N.2       1 <0>        -0.5224
     11 C9         -0.1783   -4.2096    4.0612 C.2       1 <0>         0.5090
     12 N3         -0.5432   -3.9000    2.7875 N.pl3     1 <0>        -0.5852
     13 H1         -1.0517   -4.4617    2.1819 H         1 <0>         0.4175
     14 N4         -0.4752   -5.3912    4.7112 N.pl3     1 <0>        -0.7074
     15 C10        -1.2362   -6.4356    4.0211 C.3       1 <0>         0.1670
     16 C11        -1.4238   -7.6128    4.9431 C.ar      1 <0>        -0.1040
     17 C12        -0.4833   -8.6271    4.9652 C.ar      1 <0>        -0.0934
     18 C13        -0.6489   -9.7073    5.8074 C.ar      1 <0>        -0.0980
     19 C14        -1.7680   -9.7754    6.6380 C.ar      1 <0>         0.0256
     20 C15        -2.7129   -8.7490    6.6110 C.ar      1 <0>        -0.0979
     21 C16        -2.5329   -7.6717    5.7680 C.ar      1 <0>        -0.0933
     22 C17        -1.9462  -10.8940    7.5142 C.1       1 <0>        -0.1631
     23 C18        -2.0923  -11.8110    8.2325 C.1       1 <0>        -0.1594
     24 C19         1.2809   -0.9305    3.8651 C.2       1 <0>        -0.0103
     25 C20         2.3247   -0.6148    3.0734 C.2       1 <0>        -0.0914
     26 C21         3.0431    0.6503    3.2800 C.2       1 <0>        -0.1094
     27 C22         2.8317    1.2889    4.4318 C.2       1 <0>         0.0055
     28 C23         1.9781    0.7373    5.5660 C.3       1 <0>         0.0881
     29 C24         0.7884    0.0019    4.9414 C.3       1 <0>        -0.0776
     30 O1          1.5359    1.9065    6.2758 O.3       1 <0>        -0.3745
     31 C25         2.1432    3.0267    5.5997 C.3       1 <0>         0.2036
     32 O2          3.2798    2.4845    4.8868 O.3       1 <0>        -0.3109
     33 H2          0.8058    1.9969    0.1292 H         1 <0>         0.0805
     34 H3         -0.8394    2.0876   -0.5442 H         1 <0>         0.0752
     35 H4         -0.6028    1.9928    1.2174 H         1 <0>         0.0778
     36 H5         -0.5569    0.1347   -1.9464 H         1 <0>         0.1352
     37 H6         -0.6422   -2.3466   -2.0617 H         1 <0>         0.1356
     38 H7         -0.4036   -3.6468    0.0383 H         1 <0>         0.1259
     39 H8         -0.1799   -5.5297    5.6247 H         1 <0>         0.4250
     40 H9         -2.2106   -6.0431    3.7302 H         1 <0>         0.0707
     41 H10        -0.6925   -6.7538    3.1316 H         1 <0>         0.0708
     42 H11         0.3823   -8.5734    4.3215 H         1 <0>         0.1312
     43 H12         0.0859  -10.4987    5.8234 H         1 <0>         0.1307
     44 H13        -3.5812   -8.7958    7.2515 H         1 <0>         0.1307
     45 H14        -3.2614   -6.8747    5.7491 H         1 <0>         0.1312
     46 H15        -2.2230  -12.6312    8.8749 H         1 <0>         0.2265
     47 H16         2.6323   -1.2899    2.2886 H         1 <0>         0.1205
     48 H17         3.7138    1.0458    2.5316 H         1 <0>         0.1372
     49 H18         2.5585    0.0739    6.2071 H         1 <0>         0.1113
     50 H19         0.0983    0.7251    4.5067 H         1 <0>         0.0905
     51 H20         0.2731   -0.5727    5.7110 H         1 <0>         0.0895
     52 H21         1.4367    3.4716    4.8991 H         1 <0>         0.0759
     53 H22         2.4737    3.7701    6.3252 H         1 <0>         0.1201
@<TRIPOS>BOND
     1    1    2 1
     2    1   33 1
     3    1   34 1
     4    1   35 1
     5    2    7 ar
     6    2    3 ar
     7    3    4 ar
     8    3   36 1
     9    4    5 ar
    10    4   37 1
    11    5    6 ar
    12    5   38 1
    13    6    7 ar
    14    6    8 1
    15    8   12 1
    16    8    9 2
    17    9   10 1
    18    9   24 1
    19   10   11 2
    20   11   12 1
    21   11   14 1
    22   12   13 1
    23   14   15 1
    24   14   39 1
    25   15   16 1
    26   15   40 1
    27   15   41 1
    28   16   21 ar
    29   16   17 ar
    30   17   18 ar
    31   17   42 1
    32   18   19 ar
    33   18   43 1
    34   19   20 ar
    35   19   22 1
    36   20   21 ar
    37   20   44 1
    38   21   45 1
    39   22   23 3
    40   23   46 1
    41   24   29 1
    42   24   25 2
    43   25   26 1
    44   25   47 1
    45   26   27 2
    46   26   48 1
    47   27   32 1
    48   27   28 1
    49   28   29 1
    50   28   30 1
    51   28   49 1
    52   29   50 1
    53   29   51 1
    54   30   31 1
    55   31   32 1
    56   31   52 1
    57   31   53 1
@<TRIPOS>MOLECULE
CHEMBL566877__2
   54    58     0     0     0
SMALL
USER_CHARGES

@<TRIPOS>ATOM
      1 C1         -0.0184    1.5028    0.0103 C.3       1 <0>        -0.1111
      2 C2          0.0021   -0.0041    0.0020 C.ar      1 <0>         0.1480
      3 C3          0.0056   -0.6788   -1.2046 C.ar      1 <0>        -0.1446
      4 C4          0.0249   -2.0681   -1.2109 C.ar      1 <0>        -0.0603
      5 C5          0.0401   -2.7343   -0.0003 C.ar      1 <0>        -0.1575
      6 C6          0.0355   -1.9902    1.1843 C.ar      1 <0>         0.1679
      7 N1          0.0218   -0.6595    1.1448 N.ar      1 <0>        -0.4490
      8 C7          0.0510   -2.6826    2.4824 C.2       1 <0>         0.1141
      9 C8          0.5140   -2.1790    3.6907 C.2       1 <0>         0.1278
     10 N2          0.3441   -3.1396    4.6230 N.pl3     1 <0>        -0.5164
     11 C9         -0.1923   -4.2009    4.0703 C.cat     1 <0>         0.6002
     12 N3         -0.3989   -3.9660    2.7462 N.pl3     1 <0>        -0.5459
     13 H1         -0.7868   -4.5828    2.1059 H         1 <0>         0.4584
     14 N4         -0.5045   -5.3727    4.7308 N.pl3     1 <0>        -0.6804
     15 C10        -1.1029   -6.4903    3.9966 C.3       1 <0>         0.1541
     16 C11        -1.3440   -7.6399    4.9407 C.ar      1 <0>        -0.1321
     17 C12        -0.3572   -8.5898    5.1353 C.ar      1 <0>        -0.0874
     18 C13        -0.5715   -9.6445    5.9987 C.ar      1 <0>        -0.0995
     19 C14        -1.7866   -9.7518    6.6762 C.ar      1 <0>         0.0508
     20 C15        -2.7777   -8.7903    6.4755 C.ar      1 <0>        -0.0993
     21 C16        -2.5489   -7.7376    5.6134 C.ar      1 <0>        -0.0873
     22 C17        -2.0157  -10.8442    7.5733 C.1       1 <0>        -0.1861
     23 C18        -2.2035  -11.7398    8.3088 C.1       1 <0>        -0.1299
     24 C19         1.0848   -0.8446    3.9133 C.2       1 <0>        -0.0964
     25 C20         2.3361   -0.5878    3.4841 C.2       1 <0>        -0.0183
     26 C21         2.9390    0.7290    3.7328 C.2       1 <0>        -0.1441
     27 C22         2.3455    1.5087    4.6378 C.2       1 <0>         0.0473
     28 C23         1.1559    1.0756    5.4844 C.3       1 <0>         0.0807
     29 C24         0.2526    0.2007    4.6097 C.3       1 <0>        -0.0756
     30 O1          0.4961    2.3072    5.8223 O.3       1 <0>        -0.3679
     31 C25         1.2968    3.3532    5.2345 C.3       1 <0>         0.2028
     32 O2          2.6094    2.7770    5.0362 O.3       1 <0>        -0.3030
     33 H2          1.0042    1.8801    0.0026 H         1 <0>         0.0867
     34 H3         -0.5455    1.8639   -0.8728 H         1 <0>         0.0839
     35 H4         -0.5286    1.8543    0.9071 H         1 <0>         0.0813
     36 H5         -0.0070   -0.1303   -2.1349 H         1 <0>         0.1482
     37 H6          0.0276   -2.6155   -2.1419 H         1 <0>         0.1486
     38 H7          0.0549   -3.8138    0.0308 H         1 <0>         0.1339
     39 H8         -0.3276   -5.4558    5.6809 H         1 <0>         0.4381
     40 H9         -2.0503   -6.1731    3.5610 H         1 <0>         0.0947
     41 H10        -0.4263   -6.8076    3.2031 H         1 <0>         0.0948
     42 H11         0.5827   -8.5059    4.6101 H         1 <0>         0.1330
     43 H12         0.1995  -10.3857    6.1495 H         1 <0>         0.1360
     44 H13        -3.7203   -8.8677    6.9970 H         1 <0>         0.1360
     45 H14        -3.3136   -6.9905    5.4603 H         1 <0>         0.1330
     46 H15        -2.3714  -12.5407    8.9666 H         1 <0>         0.2300
     47 H16         2.8945   -1.3481    2.9581 H         1 <0>         0.1336
     48 H17         3.8248    1.0515    3.2058 H         1 <0>         0.1501
     49 H18         1.4827    0.5377    6.3744 H         1 <0>         0.1145
     50 H19        -0.2479    0.8205    3.8658 H         1 <0>         0.1047
     51 H20        -0.4942   -0.2880    5.2353 H         1 <0>         0.0845
     52 H21         0.8722    3.6602    4.2787 H         1 <0>         0.0848
     53 H22         1.3582    4.2056    5.9111 H         1 <0>         0.1298
     54 H23         0.5830   -3.0577    5.5596 H         1 <0>         0.4597
@<TRIPOS>BOND
     1    1    2 1
     2    1   33 1
     3    1   34 1
     4    1   35 1
     5    2    7 ar
     6    2    3 ar
     7    3    4 ar
     8    3   36 1
     9    4    5 ar
    10    4   37 1
    11    5    6 ar
    12    5   38 1
    13    6    7 ar
    14    6    8 1
    15    8   12 1
    16    8    9 2
    17    9   10 1
    18    9   24 1
    19   10   11 2
    20   10   54 1
    21   11   12 1
    22   11   14 1
    23   12   13 1
    24   14   15 1
    25   14   39 1
    26   15   16 1
    27   15   40 1
    28   15   41 1
    29   16   21 ar
    30   16   17 ar
    31   17   18 ar
    32   17   42 1
    33   18   19 ar
    34   18   43 1
    35   19   20 ar
    36   19   22 1
    37   20   21 ar
    38   20   44 1
    39   21   45 1
    40   22   23 3
    41   23   46 1
    42   24   29 1
    43   24   25 2
    44   25   26 1
    45   25   47 1
    46   26   27 2
    47   26   48 1
    48   27   32 1
    49   27   28 1
    50   28   29 1
    51   28   30 1
    52   28   49 1
    53   29   50 1
    54   29   51 1
    55   30   31 1
    56   31   32 1
    57   31   52 1
    58   31   53 1
@<TRIPOS>MOLECULE
CHEMBL566877__3
   53    57     0     0     0
SMALL
USER_CHARGES

@<TRIPOS>ATOM
      1 C1         -0.0184    1.5028    0.0103 C.3       1 <0>        -0.1033
      2 C2          0.0021   -0.0041    0.0020 C.ar      1 <0>         0.1293
      3 C3          0.0056   -0.6791   -1.2045 C.ar      1 <0>        -0.1753
      4 C4          0.0249   -2.0677   -1.2094 C.ar      1 <0>        -0.0734
      5 C5          0.0401   -2.7326    0.0031 C.ar      1 <0>        -0.1487
      6 C6          0.0355   -1.9884    1.1846 C.ar      1 <0>         0.2175
      7 N1          0.0218   -0.6597    1.1447 N.ar      1 <0>        -0.4677
      8 C7          0.0510   -2.6829    2.4887 C.2       1 <0>         0.0837
      9 C8          0.5182   -2.1638    3.6895 C.2       1 <0>         0.0430
     10 N2          0.3380   -3.1573    4.6354 N.pl3     1 <0>        -0.5861
     11 C9         -0.2197   -4.2247    3.9972 C.2       1 <0>         0.4960
     12 N3         -0.3911   -3.9338    2.7308 N.2       1 <0>        -0.5178
     13 N4         -0.5575   -5.4250    4.5939 N.pl3     1 <0>        -0.7105
     14 C10        -0.3200   -5.6235    6.0259 C.3       1 <0>         0.1685
     15 C11        -0.7725   -7.0050    6.4233 C.ar      1 <0>        -0.1026
     16 C12        -2.0757   -7.2094    6.8404 C.ar      1 <0>        -0.0937
     17 C13        -2.4964   -8.4718    7.2052 C.ar      1 <0>        -0.0980
     18 C14        -1.6043   -9.5435    7.1527 C.ar      1 <0>         0.0244
     19 C15        -0.2913   -9.3305    6.7311 C.ar      1 <0>        -0.0981
     20 C16         0.1154   -8.0642    6.3640 C.ar      1 <0>        -0.0937
     21 C17        -2.0343  -10.8561    7.5303 C.1       1 <0>        -0.1623
     22 C18        -2.3868  -11.9323    7.8399 C.1       1 <0>        -0.1606
     23 C19         1.0694   -0.8750    3.9029 C.2       1 <0>        -0.0577
     24 C20         2.3231   -0.6152    3.4733 C.2       1 <0>        -0.0568
     25 C21         2.8932    0.6770    3.6465 C.2       1 <0>        -0.1625
     26 C22         2.0694    1.6895    3.9428 C.2       1 <0>         0.0510
     27 C23         0.5529    1.5443    4.0029 C.3       1 <0>         0.0793
     28 C24         0.2393    0.1742    4.5985 C.3       1 <0>        -0.0605
     29 O1          0.1872    2.5923    4.9298 O.3       1 <0>        -0.3658
     30 C25         1.1159    3.6430    4.5668 C.3       1 <0>         0.2001
     31 O2          2.3476    2.9794    4.2279 O.3       1 <0>        -0.3108
     32 H1          1.0042    1.8801    0.0026 H         1 <0>         0.0773
     33 H2         -0.5455    1.8639   -0.8728 H         1 <0>         0.0756
     34 H3         -0.5286    1.8543    0.9071 H         1 <0>         0.0720
     35 H4         -0.0069   -0.1312   -2.1352 H         1 <0>         0.1325
     36 H5          0.0276   -2.6163   -2.1396 H         1 <0>         0.1349
     37 H6          0.0549   -3.8120    0.0356 H         1 <0>         0.1386
     38 H7         -0.9519   -6.1357    4.0646 H         1 <0>         0.4230
     39 H8          0.7440   -5.5152    6.2361 H         1 <0>         0.0700
     40 H9         -0.8800   -4.8804    6.5935 H         1 <0>         0.0698
     41 H10        -2.7650   -6.3790    6.8809 H         1 <0>         0.1311
     42 H11        -3.5138   -8.6301    7.5310 H         1 <0>         0.1303
     43 H12         0.4039  -10.1559    6.6883 H         1 <0>         0.1304
     44 H13         1.1302   -7.8988    6.0336 H         1 <0>         0.1312
     45 H14        -2.7021  -12.8948    8.1169 H         1 <0>         0.2264
     46 H15         2.8977   -1.3945    2.9948 H         1 <0>         0.1226
     47 H16         3.9564    0.8356    3.5426 H         1 <0>         0.1347
     48 H17         0.0899    1.6737    3.0246 H         1 <0>         0.1157
     49 H18        -0.8188   -0.0492    4.4621 H         1 <0>         0.0883
     50 H19         0.4769    0.1803    5.6622 H         1 <0>         0.0842
     51 H20         0.7389    4.1975    3.7074 H         1 <0>         0.0830
     52 H21         1.2709    4.3156    5.4103 H         1 <0>         0.1229
     53 H22         0.5662   -3.1042    5.5767 H         1 <0>         0.4185
@<TRIPOS>BOND
     1    1    2 1
     2    1   32 1
     3    1   33 1
     4    1   34 1
     5    2    7 ar
     6    2    3 ar
     7    3    4 ar
     8    3   35 1
     9    4    5 ar
    10    4   36 1
    11    5    6 ar
    12    5   37 1
    13    6    7 ar
    14    6    8 1
    15    8   12 1
    16    8    9 2
    17    9   10 1
    18    9   23 1
    19   10   11 1
    20   10   53 1
    21   11   12 2
    22   11   13 1
    23   13   14 1
    24   13   38 1
    25   14   15 1
    26   14   39 1
    27   14   40 1
    28   15   20 ar
    29   15   16 ar
    30   16   17 ar
    31   16   41 1
    32   17   18 ar
    33   17   42 1
    34   18   19 ar
    35   18   21 1
    36   19   20 ar
    37   19   43 1
    38   20   44 1
    39   21   22 3
    40   22   45 1
    41   23   28 1
    42   23   24 2
    43   24   25 1
    44   24   46 1
    45   25   26 2
    46   25   47 1
    47   26   31 1
    48   26   27 1
    49   27   28 1
    50   27   29 1
    51   27   48 1
    52   28   49 1
    53   28   50 1
    54   29   30 1
    55   30   31 1
    56   30   51 1
    57   30   52 1
@<TRIPOS>MOLECULE
CHEMBL566877__4
   53    57     0     0     0
SMALL
USER_CHARGES

@<TRIPOS>ATOM
      1 C1         -0.1961    1.6508    0.2290 C.3       1 <0>        -0.1051
      2 C2         -0.2498    0.1463    0.1605 C.ar      1 <0>         0.1430
      3 C3         -0.4194   -0.4743   -1.0631 C.ar      1 <0>        -0.1807
      4 C4         -0.4682   -1.8616   -1.1250 C.ar      1 <0>        -0.0627
      5 C5         -0.3446   -2.5802    0.0489 C.ar      1 <0>        -0.1833
      6 C6         -0.1752   -1.8892    1.2534 C.ar      1 <0>         0.2213
      7 N1         -0.1290   -0.5587    1.2668 N.ar      1 <0>        -0.4616
      8 C7         -0.0424   -2.6379    2.5130 C.2       1 <0>        -0.0119
      9 C8          0.6005   -2.2169    3.6695 C.2       1 <0>         0.1350
     10 N2          0.4865   -3.2056    4.5806 N.2       1 <0>        -0.5232
     11 C9         -0.1833   -4.2072    4.0632 C.2       1 <0>         0.5082
     12 N3         -0.5387   -3.9022    2.7857 N.pl3     1 <0>        -0.5855
     13 H1         -1.0434   -4.4656    2.1786 H         1 <0>         0.4172
     14 N4         -0.4863   -5.3860    4.7155 N.pl3     1 <0>        -0.7077
     15 C10        -1.2435   -6.4322    4.0239 C.3       1 <0>         0.1671
     16 C11        -1.4390   -7.6057    4.9491 C.ar      1 <0>        -0.1038
     17 C12        -0.4998   -8.6209    4.9818 C.ar      1 <0>        -0.0934
     18 C13        -0.6727   -9.6977    5.8270 C.ar      1 <0>        -0.0980
     19 C14        -1.7979   -9.7613    6.6497 C.ar      1 <0>         0.0254
     20 C15        -2.7415   -8.7341    6.6119 C.ar      1 <0>        -0.0979
     21 C16        -2.5541   -7.6602    5.7661 C.ar      1 <0>        -0.0934
     22 C17        -1.9837  -10.8763    7.5288 C.1       1 <0>        -0.1630
     23 C18        -2.1361  -11.7905    8.2496 C.1       1 <0>        -0.1597
     24 C19         1.2809   -0.9305    3.8651 C.2       1 <0>        -0.0317
     25 C20         2.3252   -0.6118    3.0749 C.2       1 <0>        -0.0725
     26 C21         2.9953    0.6847    3.2326 C.2       1 <0>        -0.1523
     27 C22         2.3538    1.6280    3.9335 C.2       1 <0>         0.0382
     28 C23         0.9401    1.4491    4.4743 C.3       1 <0>         0.0801
     29 C24         0.7909    0.0047    4.9408 C.3       1 <0>        -0.0580
     30 O1          0.9347    2.3481    5.6071 O.3       1 <0>        -0.3653
     31 C25         1.7257    3.4544    5.1088 C.3       1 <0>         0.2010
     32 O2          2.7548    2.8653    4.2924 O.3       1 <0>        -0.3125
     33 H2          0.8357    1.9832    0.1148 H         1 <0>         0.0808
     34 H3         -0.8044    2.0729   -0.5710 H         1 <0>         0.0757
     35 H4         -0.5809    1.9846    1.1926 H         1 <0>         0.0754
     36 H5         -0.5135    0.1143   -1.9636 H         1 <0>         0.1348
     37 H6         -0.6003   -2.3673   -2.0701 H         1 <0>         0.1353
     38 H7         -0.3785   -3.6596    0.0366 H         1 <0>         0.1258
     39 H8         -0.1977   -5.5213    5.6317 H         1 <0>         0.4249
     40 H9         -2.2153   -6.0398    3.7245 H         1 <0>         0.0705
     41 H10        -0.6936   -6.7545    3.1397 H         1 <0>         0.0707
     42 H11         0.3705   -8.5706    4.3443 H         1 <0>         0.1313
     43 H12         0.0610  -10.4898    5.8513 H         1 <0>         0.1307
     44 H13        -3.6145   -8.7774    7.2463 H         1 <0>         0.1307
     45 H14        -3.2816   -6.8624    5.7388 H         1 <0>         0.1312
     46 H15        -2.2723  -12.6080    8.8942 H         1 <0>         0.2265
     47 H16         2.6690   -1.3102    2.3263 H         1 <0>         0.1194
     48 H17         3.9676    0.8703    2.8007 H         1 <0>         0.1343
     49 H18         0.1842    1.7112    3.7340 H         1 <0>         0.1090
     50 H19        -0.2583   -0.2026    5.1517 H         1 <0>         0.0861
     51 H20         1.3792   -0.1435    5.8463 H         1 <0>         0.0912
     52 H21         1.1051    4.1202    4.5091 H         1 <0>         0.0808
     53 H22         2.1717    4.0017    5.9392 H         1 <0>         0.1217
@<TRIPOS>BOND
     1    1    2 1
     2    1   33 1
     3    1   34 1
     4    1   35 1
     5    2    7 ar
     6    2    3 ar
     7    3    4 ar
     8    3   36 1
     9    4    5 ar
    10    4   37 1
    11    5    6 ar
    12    5   38 1
    13    6    7 ar
    14    6    8 1
    15    8   12 1
    16    8    9 2
    17    9   10 1
    18    9   24 1
    19   10   11 2
    20   11   12 1
    21   11   14 1
    22   12   13 1
    23   14   15 1
    24   14   39 1
    25   15   16 1
    26   15   40 1
    27   15   41 1
    28   16   21 ar
    29   16   17 ar
    30   17   18 ar
    31   17   42 1
    32   18   19 ar
    33   18   43 1
    34   19   20 ar
    35   19   22 1
    36   20   21 ar
    37   20   44 1
    38   21   45 1
    39   22   23 3
    40   23   46 1
    41   24   29 1
    42   24   25 2
    43   25   26 1
    44   25   47 1
    45   26   27 2
    46   26   48 1
    47   27   32 1
    48   27   28 1
    49   28   29 1
    50   28   30 1
    51   28   49 1
    52   29   50 1
    53   29   51 1
    54   30   31 1
    55   31   32 1
    56   31   52 1
    57   31   53 1
@<TRIPOS>MOLECULE
CHEMBL566877__5
   54    58     0     0     0
SMALL
USER_CHARGES

@<TRIPOS>ATOM
      1 C1         -0.0184    1.5028    0.0103 C.3       1 <0>        -0.1122
      2 C2          0.0021   -0.0041    0.0020 C.ar      1 <0>         0.1465
      3 C3          0.0056   -0.6788   -1.2046 C.ar      1 <0>        -0.1447
      4 C4          0.0249   -2.0681   -1.2109 C.ar      1 <0>        -0.0598
      5 C5          0.0401   -2.7343   -0.0003 C.ar      1 <0>        -0.1573
      6 C6          0.0355   -1.9902    1.1843 C.ar      1 <0>         0.1710
      7 N1          0.0218   -0.6595    1.1448 N.ar      1 <0>        -0.4504
      8 C7          0.0510   -2.6826    2.4824 C.2       1 <0>         0.1091
      9 C8          0.5140   -2.1790    3.6907 C.2       1 <0>         0.1369
     10 N2          0.3441   -3.1396    4.6230 N.pl3     1 <0>        -0.5167
     11 C9         -0.1923   -4.2009    4.0703 C.cat     1 <0>         0.5988
     12 N3         -0.3989   -3.9660    2.7462 N.pl3     1 <0>        -0.5457
     13 H1         -0.7868   -4.5828    2.1059 H         1 <0>         0.4580
     14 N4         -0.5045   -5.3727    4.7308 N.pl3     1 <0>        -0.6811
     15 C10        -1.1029   -6.4903    3.9966 C.3       1 <0>         0.1543
     16 C11        -1.3440   -7.6399    4.9407 C.ar      1 <0>        -0.1318
     17 C12        -0.3572   -8.5898    5.1353 C.ar      1 <0>        -0.0874
     18 C13        -0.5715   -9.6445    5.9987 C.ar      1 <0>        -0.0994
     19 C14        -1.7866   -9.7518    6.6762 C.ar      1 <0>         0.0505
     20 C15        -2.7777   -8.7903    6.4755 C.ar      1 <0>        -0.0993
     21 C16        -2.5489   -7.7376    5.6134 C.ar      1 <0>        -0.0874
     22 C17        -2.0157  -10.8442    7.5733 C.1       1 <0>        -0.1859
     23 C18        -2.2035  -11.7398    8.3088 C.1       1 <0>        -0.1302
     24 C19         1.0848   -0.8446    3.9133 C.2       1 <0>        -0.1219
     25 C20         2.3360   -0.5847    3.4852 C.2       1 <0>         0.0017
     26 C21         2.9102    0.7541    3.6675 C.2       1 <0>        -0.1908
     27 C22         2.0665    1.7507    3.9630 C.2       1 <0>         0.0812
     28 C23         0.5533    1.5755    4.0138 C.3       1 <0>         0.0743
     29 C24         0.2552    0.2035    4.6096 C.3       1 <0>        -0.0568
     30 O1          0.1595    2.6207    4.9324 O.3       1 <0>        -0.3603
     31 C25         1.0720    3.6870    4.5740 C.3       1 <0>         0.1986
     32 O2          2.3190    3.0447    4.2501 O.3       1 <0>        -0.3021
     33 H2          1.0042    1.8801    0.0026 H         1 <0>         0.0869
     34 H3         -0.5455    1.8639   -0.8728 H         1 <0>         0.0856
     35 H4         -0.5286    1.8543    0.9071 H         1 <0>         0.0785
     36 H5         -0.0070   -0.1303   -2.1349 H         1 <0>         0.1479
     37 H6          0.0276   -2.6155   -2.1419 H         1 <0>         0.1485
     38 H7          0.0549   -3.8138    0.0308 H         1 <0>         0.1340
     39 H8         -0.3276   -5.4558    5.6809 H         1 <0>         0.4379
     40 H9         -2.0503   -6.1731    3.5610 H         1 <0>         0.0944
     41 H10        -0.4263   -6.8076    3.2031 H         1 <0>         0.0945
     42 H11         0.5827   -8.5059    4.6101 H         1 <0>         0.1330
     43 H12         0.1995  -10.3857    6.1495 H         1 <0>         0.1360
     44 H13        -3.7203   -8.8677    6.9970 H         1 <0>         0.1360
     45 H14        -3.3136   -6.9905    5.4603 H         1 <0>         0.1329
     46 H15        -2.3714  -12.5407    8.9666 H         1 <0>         0.2300
     47 H16         2.9161   -1.3610    3.0085 H         1 <0>         0.1322
     48 H17         3.9714    0.9280    3.5676 H         1 <0>         0.1468
     49 H18         0.0961    1.6937    3.0314 H         1 <0>         0.1191
     50 H19        -0.8026   -0.0264    4.4813 H         1 <0>         0.0913
     51 H20         0.4983    0.2123    5.6721 H         1 <0>         0.0929
     52 H21         0.6933    4.2308    3.7086 H         1 <0>         0.0907
     53 H22         1.2063    4.3658    5.4161 H         1 <0>         0.1314
     54 H23         0.5830   -3.0577    5.5596 H         1 <0>         0.4599
@<TRIPOS>BOND
     1    1    2 1
     2    1   33 1
     3    1   34 1
     4    1   35 1
     5    2    7 ar
     6    2    3 ar
     7    3    4 ar
     8    3   36 1
     9    4    5 ar
    10    4   37 1
    11    5    6 ar
    12    5   38 1
    13    6    7 ar
    14    6    8 1
    15    8   12 1
    16    8    9 2
    17    9   10 1
    18    9   24 1
    19   10   11 2
    20   10   54 1
    21   11   12 1
    22   11   14 1
    23   12   13 1
    24   14   15 1
    25   14   39 1
    26   15   16 1
    27   15   40 1
    28   15   41 1
    29   16   21 ar
    30   16   17 ar
    31   17   18 ar
    32   17   42 1
    33   18   19 ar
    34   18   43 1
    35   19   20 ar
    36   19   22 1
    37   20   21 ar
    38   20   44 1
    39   21   45 1
    40   22   23 3
    41   23   46 1
    42   24   29 1
    43   24   25 2
    44   25   26 1
    45   25   47 1
    46   26   27 2
    47   26   48 1
    48   27   32 1
    49   27   28 1
    50   28   29 1
    51   28   30 1
    52   28   49 1
    53   29   50 1
    54   29   51 1
    55   30   31 1
    56   31   32 1
    57   31   52 1
    58   31   53 1
@<TRIPOS>MOLECULE
CHEMBL564660
   37    40     0     0     0
SMALL
USER_CHARGES

@<TRIPOS>ATOM
      1 C1          1.0154   -0.4687   -4.9326 C.ar      1 <0>        -0.0962
      2 C2          2.1408    0.3310   -4.8465 C.ar      1 <0>        -0.1318
      3 C3          3.1653   -0.0054   -3.9852 C.ar      1 <0>        -0.0670
      4 C4          3.0644   -1.1535   -3.2012 C.ar      1 <0>        -0.0524
      5 C5          1.9279   -1.9556   -3.2922 C.ar      1 <0>        -0.0694
      6 C6          0.9098   -1.6093   -4.1571 C.ar      1 <0>        -0.1318
      7 C7          4.1620   -1.5206   -2.2742 C.ar      1 <0>         0.4097
      8 N1          5.2454   -0.7667   -2.2468 N.ar      1 <0>        -0.5324
      9 C8          6.2587   -1.0653   -1.4230 C.ar      1 <0>         0.1934
     10 C9          7.4234   -0.2863   -1.3677 C.ar      1 <0>        -0.1065
     11 C10         8.4253   -0.6336   -0.5113 C.ar      1 <0>        -0.0715
     12 C11         8.3113   -1.7514    0.3107 C.ar      1 <0>        -0.1268
     13 C12         7.1922   -2.5309    0.2822 C.ar      1 <0>        -0.0738
     14 C13         6.1449   -2.2023   -0.5849 C.ar      1 <0>        -0.1928
     15 C14         4.9590   -2.9746   -0.6570 C.ar      1 <0>         0.4683
     16 N2          4.0116   -2.5936   -1.5005 N.ar      1 <0>        -0.5694
     17 N3          4.7932   -4.0927    0.1355 N.pl3     1 <0>        -0.6364
     18 C15         3.5764   -4.7718    0.1366 C.ar      1 <0>         0.1976
     19 C16         2.3766   -4.0902   -0.0648 C.ar      1 <0>        -0.1704
     20 C17         1.1935   -4.7992   -0.0564 C.ar      1 <0>         0.1179
     21 N4          1.1883   -6.1045    0.1388 N.ar      1 <0>        -0.4965
     22 C18         2.3022   -6.7852    0.3330 C.ar      1 <0>         0.1204
     23 C19         3.5272   -6.1515    0.3334 C.ar      1 <0>        -0.2042
     24 H1          0.2141   -0.1991   -5.6047 H         1 <0>         0.1258
     25 H2          2.2181    1.2201   -5.4547 H         1 <0>         0.1283
     26 H3          4.0437    0.6195   -3.9190 H         1 <0>         0.1370
     27 H4          1.8444   -2.8462   -2.6872 H         1 <0>         0.1348
     28 H5          0.0288   -2.2299   -4.2285 H         1 <0>         0.1281
     29 H6          7.5261    0.5833   -2.0000 H         1 <0>         0.1430
     30 H7          9.3217   -0.0326   -0.4699 H         1 <0>         0.1366
     31 H8          9.1202   -2.0051    0.9798 H         1 <0>         0.1334
     32 H9          7.1152   -3.3955    0.9249 H         1 <0>         0.1263
     33 H10         5.5238   -4.4057    0.6916 H         1 <0>         0.4244
     34 H11         2.3737   -3.0221   -0.2247 H         1 <0>         0.1485
     35 H12         0.2595   -4.2796   -0.2111 H         1 <0>         0.1592
     36 H13         2.2543   -7.8528    0.4890 H         1 <0>         0.1598
     37 H14         4.4354   -6.7152    0.4879 H         1 <0>         0.1366
@<TRIPOS>BOND
     1    1    6 ar
     2    1    2 ar
     3    1   24 1
     4    2    3 ar
     5    2   25 1
     6    3    4 ar
     7    3   26 1
     8    4    5 ar
     9    4    7 1
    10    5    6 ar
    11    5   27 1
    12    6   28 1
    13    7   16 ar
    14    7    8 ar
    15    8    9 ar
    16    9   14 ar
    17    9   10 ar
    18   10   11 ar
    19   10   29 1
    20   11   12 ar
    21   11   30 1
    22   12   13 ar
    23   12   31 1
    24   13   14 ar
    25   13   32 1
    26   14   15 ar
    27   15   16 ar
    28   15   17 1
    29   17   18 1
    30   17   33 1
    31   18   23 ar
    32   18   19 ar
    33   19   20 ar
    34   19   34 1
    35   20   21 ar
    36   20   35 1
    37   21   22 ar
    38   22   23 ar
    39   22   36 1
    40   23   37 1
@<TRIPOS>MOLECULE
CHEMBL560415
   42    45     0     0     0
SMALL
USER_CHARGES

@<TRIPOS>ATOM
      1 C1          0.5974    1.4595    0.0124 C.3       1 <0>        -0.1036
      2 C2          0.3759   -0.0312    0.0034 C.ar      1 <0>         0.1254
      3 C3          0.2901   -0.7013   -1.2046 C.ar      1 <0>        -0.1537
      4 C4          0.0862   -2.0730   -1.2081 C.ar      1 <0>        -0.0800
      5 C5         -0.0249   -2.7277    0.0076 C.ar      1 <0>        -0.1251
      6 C6          0.0713   -1.9900    1.1847 C.ar      1 <0>         0.1702
      7 N1          0.2720   -0.6791    1.1446 N.ar      1 <0>        -0.4389
      8 C7         -0.0462   -2.6766    2.4948 C.ar      1 <0>         0.4133
      9 N2         -0.2355   -3.9825    2.5094 N.ar      1 <0>        -0.5269
     10 C8         -0.3461   -4.6388    3.6716 C.ar      1 <0>         0.1913
     11 C9         -0.5470   -6.0258    3.7238 C.ar      1 <0>        -0.1038
     12 C10        -0.6525   -6.6454    4.9333 C.ar      1 <0>        -0.0726
     13 C11        -0.5641   -5.9227    6.1199 C.ar      1 <0>        -0.1238
     14 C12        -0.3694   -4.5726    6.1053 C.ar      1 <0>        -0.0748
     15 C13        -0.2563   -3.9055    4.8810 C.ar      1 <0>        -0.1868
     16 C14        -0.0525   -2.5053    4.8045 C.ar      1 <0>         0.4620
     17 N3          0.0491   -1.9502    3.6062 N.ar      1 <0>        -0.5397
     18 N4          0.0424   -1.7400    5.9495 N.pl3     1 <0>        -0.6343
     19 C15         0.1232   -0.3521    5.8553 C.ar      1 <0>         0.1970
     20 C16        -0.4835    0.3300    4.8008 C.ar      1 <0>        -0.1638
     21 C17        -0.3806    1.7040    4.7440 C.ar      1 <0>         0.1259
     22 N5          0.2813    2.3718    5.6704 N.ar      1 <0>        -0.4975
     23 C18         0.8688    1.7632    6.6833 C.ar      1 <0>         0.1455
     24 C19         0.8077    0.3915    6.8158 C.ar      1 <0>        -0.2055
     25 C20         1.6109    2.5775    7.7115 C.3       1 <0>        -0.1039
     26 H1          1.6672    1.6678    0.0214 H         1 <0>         0.0789
     27 H2          0.1491    1.8988   -0.8787 H         1 <0>         0.0765
     28 H3          0.1360    1.8899    0.9012 H         1 <0>         0.0793
     29 H4          0.3806   -0.1611   -2.1354 H         1 <0>         0.1392
     30 H5          0.0154   -2.6184   -2.1375 H         1 <0>         0.1419
     31 H6         -0.1844   -3.7953    0.0419 H         1 <0>         0.1494
     32 H7         -0.6180   -6.5994    2.8114 H         1 <0>         0.1437
     33 H8         -0.8076   -7.7135    4.9717 H         1 <0>         0.1371
     34 H9         -0.6511   -6.4380    7.0650 H         1 <0>         0.1339
     35 H10        -0.3024   -4.0228    7.0325 H         1 <0>         0.1272
     36 H11         0.0528   -2.1685    6.8197 H         1 <0>         0.4235
     37 H12        -1.0260   -0.2104    4.0391 H         1 <0>         0.1506
     38 H13        -0.8472    2.2404    3.9311 H         1 <0>         0.1578
     39 H14         1.2868   -0.1000    7.6497 H         1 <0>         0.1342
     40 H15         0.9278    2.8616    8.5120 H         1 <0>         0.0786
     41 H16         2.4276    1.9851    8.1239 H         1 <0>         0.0733
     42 H17         2.0140    3.4750    7.2423 H         1 <0>         0.0790
@<TRIPOS>BOND
     1    1    2 1
     2    1   26 1
     3    1   27 1
     4    1   28 1
     5    2    7 ar
     6    2    3 ar
     7    3    4 ar
     8    3   29 1
     9    4    5 ar
    10    4   30 1
    11    5    6 ar
    12    5   31 1
    13    6    7 ar
    14    6    8 1
    15    8   17 ar
    16    8    9 ar
    17    9   10 ar
    18   10   15 ar
    19   10   11 ar
    20   11   12 ar
    21   11   32 1
    22   12   13 ar
    23   12   33 1
    24   13   14 ar
    25   13   34 1
    26   14   15 ar
    27   14   35 1
    28   15   16 ar
    29   16   17 ar
    30   16   18 1
    31   18   19 1
    32   18   36 1
    33   19   24 ar
    34   19   20 ar
    35   20   21 ar
    36   20   37 1
    37   21   22 ar
    38   21   38 1
    39   22   23 ar
    40   23   24 ar
    41   23   25 1
    42   24   39 1
    43   25   40 1
    44   25   41 1
    45   25   42 1
@<TRIPOS>MOLECULE
CHEMBL560415__1
   43    46     0     0     0
SMALL
USER_CHARGES

@<TRIPOS>ATOM
      1 C1          0.5974    1.4595    0.0124 C.3       1 <0>        -0.1012
      2 C2          0.3759   -0.0312    0.0034 C.ar      1 <0>         0.1227
      3 C3          0.2901   -0.7013   -1.2046 C.ar      1 <0>        -0.1458
      4 C4          0.0862   -2.0730   -1.2081 C.ar      1 <0>        -0.0743
      5 C5         -0.0249   -2.7277    0.0076 C.ar      1 <0>        -0.1188
      6 C6          0.0713   -1.9900    1.1847 C.ar      1 <0>         0.1620
      7 N1          0.2720   -0.6791    1.1446 N.ar      1 <0>        -0.4508
      8 C7         -0.0462   -2.6766    2.4948 C.ar      1 <0>         0.4099
      9 N2         -0.2355   -3.9825    2.5094 N.ar      1 <0>        -0.4980
     10 C8         -0.3461   -4.6388    3.6716 C.ar      1 <0>         0.1881
     11 C9         -0.5470   -6.0258    3.7238 C.ar      1 <0>        -0.0941
     12 C10        -0.6525   -6.6454    4.9333 C.ar      1 <0>        -0.0673
     13 C11        -0.5641   -5.9227    6.1199 C.ar      1 <0>        -0.1020
     14 C12        -0.3694   -4.5726    6.1053 C.ar      1 <0>        -0.0890
     15 C13        -0.2563   -3.9055    4.8810 C.ar      1 <0>        -0.1703
     16 C14        -0.0525   -2.5053    4.8045 C.ar      1 <0>         0.4373
     17 N3          0.0491   -1.9502    3.6062 N.ar      1 <0>        -0.5390
     18 N4          0.0424   -1.7400    5.9495 N.pl3     1 <0>        -0.6246
     19 C15         0.1232   -0.3521    5.8553 C.ar      1 <0>         0.2960
     20 C16        -0.4835    0.3300    4.8008 C.ar      1 <0>        -0.1364
     21 C17        -0.3806    1.7040    4.7440 C.ar      1 <0>         0.1539
     22 N5          0.2813    2.3718    5.6704 N.ar      1 <0>        -0.4718
     23 C18         0.8692    1.7631    6.6831 C.ar      1 <0>         0.1920
     24 C19         0.8077    0.3915    6.8158 C.ar      1 <0>        -0.1781
     25 C20         1.6116    2.5775    7.7110 C.3       1 <0>        -0.1439
     26 H1          1.6672    1.6678    0.0214 H         1 <0>         0.0798
     27 H2          0.1491    1.8988   -0.8787 H         1 <0>         0.0806
     28 H3          0.1360    1.8899    0.9012 H         1 <0>         0.0722
     29 H4          0.3806   -0.1611   -2.1354 H         1 <0>         0.1432
     30 H5          0.0154   -2.6184   -2.1375 H         1 <0>         0.1469
     31 H6         -0.1844   -3.7953    0.0419 H         1 <0>         0.1518
     32 H7         -0.6180   -6.5994    2.8114 H         1 <0>         0.1511
     33 H8         -0.8076   -7.7135    4.9717 H         1 <0>         0.1454
     34 H9         -0.6511   -6.4380    7.0650 H         1 <0>         0.1414
     35 H10        -0.3024   -4.0228    7.0325 H         1 <0>         0.1299
     36 H11         0.0528   -2.1685    6.8197 H         1 <0>         0.4389
     37 H12        -1.0260   -0.2104    4.0391 H         1 <0>         0.1933
     38 H13        -0.8472    2.2404    3.9311 H         1 <0>         0.2096
     39 H14         1.2868   -0.1000    7.6497 H         1 <0>         0.1823
     40 H15         0.9289    2.8615    8.5118 H         1 <0>         0.1160
     41 H16         2.4285    1.9849    8.1231 H         1 <0>         0.1153
     42 H17         2.0146    3.4749    7.2416 H         1 <0>         0.0992
     43 H18         0.3375    3.3380    5.6048 H         1 <0>         0.4467
@<TRIPOS>BOND
     1    1    2 1
     2    1   26 1
     3    1   27 1
     4    1   28 1
     5    2    7 ar
     6    2    3 ar
     7    3    4 ar
     8    3   29 1
     9    4    5 ar
    10    4   30 1
    11    5    6 ar
    12    5   31 1
    13    6    7 ar
    14    6    8 1
    15    8   17 ar
    16    8    9 ar
    17    9   10 ar
    18   10   15 ar
    19   10   11 ar
    20   11   12 ar
    21   11   32 1
    22   12   13 ar
    23   12   33 1
    24   13   14 ar
    25   13   34 1
    26   14   15 ar
    27   14   35 1
    28   15   16 ar
    29   16   17 ar
    30   16   18 1
    31   18   19 1
    32   18   36 1
    33   19   24 ar
    34   19   20 ar
    35   20   21 ar
    36   20   37 1
    37   21   22 ar
    38   21   38 1
    39   22   23 ar
    40   22   43 1
    41   23   24 ar
    42   23   25 1
    43   24   39 1
    44   25   40 1
    45   25   41 1
    46   25   42 1
@<TRIPOS>MOLECULE
CHEMBL519939
   43    46     0     0     0
SMALL
NO_CHARGES

@<TRIPOS>ATOM
      1 C1          1.7808    2.2922    0.9793 C.3       1 <0>        -0.1095
      2 C2          1.5652    0.8156    0.7691 C.ar      1 <0>         0.1230
      3 C3          1.5525    0.3033   -0.5180 C.ar      1 <0>         0.0472
      4 C4          1.3533   -1.0596   -0.7077 C.ar      1 <0>        -0.0929
      5 C5          1.1736   -1.8618    0.4041 C.ar      1 <0>        -0.1410
      6 C6          1.1981   -1.2785    1.6730 C.ar      1 <0>         0.1917
      7 N1          1.3969    0.0287    1.8117 N.ar      1 <0>        -0.4423
      8 C7          1.0075   -2.1207    2.8693 C.2       1 <0>         0.0696
      9 C8          0.8871   -1.6796    4.1513 C.2       1 <0>         0.1205
     10 N2          0.7234   -2.7893    4.9647 N.pl3     1 <0>        -0.6162
     11 H1          0.6124   -2.7774    5.9282 H         1 <0>         0.4386
     12 C9          0.7446   -3.8965    4.1785 C.2       1 <0>         0.5728
     13 N3          0.9125   -3.5039    2.8896 N.pl3     1 <0>        -0.5913
     14 N4          0.6175   -5.1541    4.5999 N.2       1 <0>        -0.6122
     15 C10         0.5503   -5.4151    5.9005 C.2       1 <0>         0.1211
     16 O1         -0.3913   -5.0088    6.5543 O.3       1 <0>        -0.4470
     17 C11         1.6407   -6.2146    6.5659 C.3       1 <0>        -0.0985
     18 C12         0.9243   -0.2727    4.5950 C.ar      1 <0>         0.0049
     19 C13         0.1031    0.6809    3.9642 C.ar      1 <0>        -0.0302
     20 C14         0.1204    1.9799    4.3545 C.ar      1 <0>        -0.0899
     21 C15         0.9659    2.3907    5.4026 C.ar      1 <0>         0.0921
     22 C16         1.7983    1.4391    6.0470 C.ar      1 <0>         0.0767
     23 C17         1.7633    0.0991    5.6334 C.ar      1 <0>        -0.0610
     24 N5          2.6010    1.8308    7.0439 N.ar      1 <0>        -0.4224
     25 C18         2.6103    3.0910    7.4155 C.ar      1 <0>         0.0740
     26 C19         1.7914    4.0266    6.7814 C.ar      1 <0>         0.0799
     27 N6          0.9950    3.6666    5.8000 N.ar      1 <0>        -0.4266
     28 F1          1.7314    1.1204   -1.5789 F         1 <0>        -0.1237
     29 H2          2.8380    2.4824    1.1644 H         1 <0>         0.0849
     30 H3          1.4643    2.8359    0.0891 H         1 <0>         0.0822
     31 H4          1.1960    2.6264    1.8362 H         1 <0>         0.0866
     32 H5          1.3389   -1.4823   -1.7015 H         1 <0>         0.1539
     33 H6          1.0161   -2.9244    0.2930 H         1 <0>         0.1431
     34 H7          0.9598   -4.0893    2.1176 H         1 <0>         0.4394
     35 H8          2.4171   -5.5401    6.9269 H         1 <0>         0.0618
     36 H9          1.2230   -6.7703    7.4054 H         1 <0>         0.0621
     37 H10         2.0706   -6.9117    5.8467 H         1 <0>         0.0699
     38 H11        -0.5486    0.3746    3.1593 H         1 <0>         0.1322
     39 H12        -0.5150    2.7000    3.8604 H         1 <0>         0.1424
     40 H13         2.3886   -0.6364    6.1177 H         1 <0>         0.1397
     41 H14         3.2580    3.4061    8.2202 H         1 <0>         0.1762
     42 H15         1.8124    5.0580    7.1009 H         1 <0>         0.1762
     43 H16        -1.2407   -5.3975    6.3043 H         1 <0>         0.3420
@<TRIPOS>BOND
     1    1    2 1
     2    1   29 1
     3    1   30 1
     4    1   31 1
     5    2    7 ar
     6    2    3 ar
     7    3    4 ar
     8    3   28 1
     9    4    5 ar
    10    4   32 1
    11    5    6 ar
    12    5   33 1
    13    6    7 ar
    14    6    8 1
    15    8   13 1
    16    8    9 2
    17    9   18 1
    18    9   10 1
    19   10   12 1
    20   10   11 1
    21   12   14 2
    22   12   13 1
    23   13   34 1
    24   14   15 1
    25   15   17 1
    26   15   16 2
    27   16   43 1
    28   17   35 1
    29   17   36 1
    30   17   37 1
    31   18   23 ar
    32   18   19 ar
    33   19   20 ar
    34   19   38 1
    35   20   21 ar
    36   20   39 1
    37   21   27 ar
    38   21   22 ar
    39   22   23 ar
    40   22   24 ar
    41   23   40 1
    42   24   25 ar
    43   25   26 ar
    44   25   41 1
    45   26   27 ar
    46   26   42 1
@<TRIPOS>MOLECULE
CHEMBL519939__1
   42    45     0     0     0
SMALL
USER_CHARGES

@<TRIPOS>ATOM
      1 C1          0.4726    1.4577    0.0628 C.3       1 <0>        -0.1091
      2 C2          0.4500   -0.0492    0.0683 C.ar      1 <0>         0.1207
      3 C3          0.4436   -0.7369   -1.1343 C.ar      1 <0>         0.0553
      4 C4          0.4228   -2.1271   -1.1250 C.ar      1 <0>        -0.0933
      5 C5          0.4091   -2.7791    0.0943 C.ar      1 <0>        -0.1338
      6 C6          0.4166   -2.0228    1.2685 C.ar      1 <0>         0.1829
      7 N1          0.4421   -0.6946    1.2163 N.ar      1 <0>        -0.4378
      8 C7          0.4017   -2.7036    2.5775 C.2       1 <0>         0.0763
      9 C8          0.2874   -2.1034    3.7937 C.2       1 <0>         0.1126
     10 N2          0.3161   -3.0978    4.7581 N.pl3     1 <0>        -0.5676
     11 H1          0.2529   -2.9631    5.7167 H         1 <0>         0.4492
     12 C9          0.4472   -4.2939    4.1284 C.2       1 <0>         0.6261
     13 N3          0.4957   -4.0706    2.7899 N.pl3     1 <0>        -0.5843
     14 N4          0.5125   -5.4846    4.7227 N.2       1 <0>        -0.6692
     15 C10         0.5278   -6.5924    3.9903 C.2       1 <0>         0.5003
     16 O1          0.5718   -6.5188    2.7771 O.2       1 <0>        -0.6057
     17 C11         0.4908   -7.9407    4.6625 C.3       1 <0>        -0.1464
     18 C12         0.1563   -0.6545    4.0406 C.ar      1 <0>         0.0037
     19 C13        -0.8138    0.0886    3.3417 C.ar      1 <0>        -0.0298
     20 C14        -0.9525    1.4216    3.5516 C.ar      1 <0>        -0.0880
     21 C15        -0.1218    2.0804    4.4780 C.ar      1 <0>         0.0939
     22 C16         0.8597    1.3426    5.1894 C.ar      1 <0>         0.0755
     23 C17         0.9853   -0.0362    4.9630 C.ar      1 <0>        -0.0579
     24 N5          1.6481    1.9699    6.0704 N.ar      1 <0>        -0.4217
     25 C18         1.5058    3.2611    6.2676 C.ar      1 <0>         0.0751
     26 C19         0.5403    3.9863    5.5677 C.ar      1 <0>         0.0823
     27 N6         -0.2454    3.3931    4.6973 N.ar      1 <0>        -0.4266
     28 F1          0.4570   -0.0630   -2.3052 F         1 <0>        -0.1215
     29 H2          1.5018    1.8060    0.1489 H         1 <0>         0.0856
     30 H3          0.0417    1.8241   -0.8689 H         1 <0>         0.0831
     31 H4         -0.1095    1.8328    0.9046 H         1 <0>         0.0872
     32 H5          0.4171   -2.6852   -2.0495 H         1 <0>         0.1563
     33 H6          0.3925   -3.8581    0.1380 H         1 <0>         0.1449
     34 H7          0.5828   -4.7491    2.1022 H         1 <0>         0.4514
     35 H8          0.4536   -7.8068    5.7436 H         1 <0>         0.0833
     36 H9         -0.3934   -8.4866    4.3334 H         1 <0>         0.0871
     37 H10         1.3854   -8.5039    4.3967 H         1 <0>         0.0868
     38 H11        -1.4552   -0.4086    2.6292 H         1 <0>         0.1335
     39 H12        -1.7009    1.9783    3.0072 H         1 <0>         0.1437
     40 H13         1.7253   -0.6106    5.5004 H         1 <0>         0.1416
     41 H14         2.1422    3.7664    6.9790 H         1 <0>         0.1771
     42 H15         0.4378    5.0470    5.7434 H         1 <0>         0.1770
@<TRIPOS>BOND
     1    1    2 1
     2    1   29 1
     3    1   30 1
     4    1   31 1
     5    2    7 ar
     6    2    3 ar
     7    3    4 ar
     8    3   28 1
     9    4    5 ar
    10    4   32 1
    11    5    6 ar
    12    5   33 1
    13    6    7 ar
    14    6    8 1
    15    8   13 1
    16    8    9 2
    17    9   18 1
    18    9   10 1
    19   10   12 1
    20   10   11 1
    21   12   14 2
    22   12   13 1
    23   13   34 1
    24   14   15 1
    25   15   17 1
    26   15   16 2
    27   17   35 1
    28   17   36 1
    29   17   37 1
    30   18   23 ar
    31   18   19 ar
    32   19   20 ar
    33   19   38 1
    34   20   21 ar
    35   20   39 1
    36   21   27 ar
    37   21   22 ar
    38   22   23 ar
    39   22   24 ar
    40   23   40 1
    41   24   25 ar
    42   25   26 ar
    43   25   41 1
    44   26   27 ar
    45   26   42 1
@<TRIPOS>MOLECULE
CHEMBL519939__2
   42    45     0     0     0
SMALL
USER_CHARGES

@<TRIPOS>ATOM
      1 C1          0.3880    1.2285   -0.4669 C.3       1 <0>        -0.1104
      2 C2          0.3877   -0.2744   -0.3561 C.ar      1 <0>         0.1236
      3 C3          0.3997   -1.0446   -1.5076 C.ar      1 <0>         0.0534
      4 C4          0.3994   -2.4308   -1.4010 C.ar      1 <0>        -0.0925
      5 C5          0.3870   -2.9961   -0.1392 C.ar      1 <0>        -0.1378
      6 C6          0.3753   -2.1596    0.9792 C.ar      1 <0>         0.1886
      7 N1          0.3815   -0.8380    0.8343 N.ar      1 <0>        -0.4389
      8 C7          0.3615   -2.7473    2.3325 C.2       1 <0>         0.0706
      9 C8          0.2303   -2.0653    3.5030 C.2       1 <0>         0.1184
     10 N2          0.2670   -2.9892    4.5349 N.pl3     1 <0>        -0.5853
     11 H1          0.1954   -2.7888    5.4813 H         1 <0>         0.4537
     12 C9          0.4197   -4.2243    3.9912 C.2       1 <0>         0.6267
     13 N3          0.4739   -4.0945    2.6408 N.pl3     1 <0>        -0.5674
     14 N4          0.4982   -5.3694    4.6679 N.2       1 <0>        -0.6700
     15 C10         0.5417   -5.3548    5.9953 C.2       1 <0>         0.4994
     16 O1          0.4205   -4.3043    6.5961 O.2       1 <0>        -0.6022
     17 C11         0.7412   -6.6398    6.7569 C.3       1 <0>        -0.1462
     18 C12         0.0766   -0.6047    3.6472 C.ar      1 <0>        -0.0013
     19 C13        -0.8997    0.0731    2.8927 C.ar      1 <0>        -0.0294
     20 C14        -1.0591    1.4152    3.0079 C.ar      1 <0>        -0.0891
     21 C15        -0.2441    2.1496    3.8904 C.ar      1 <0>         0.0942
     22 C16         0.7434    1.4781    4.6570 C.ar      1 <0>         0.0757
     23 C17         0.8905    0.0889    4.5285 C.ar      1 <0>        -0.0551
     24 N5          1.5170    2.1773    5.4961 N.ar      1 <0>        -0.4210
     25 C18         1.3546    3.4769    5.6017 C.ar      1 <0>         0.0746
     26 C19         0.3832    4.1368    4.8474 C.ar      1 <0>         0.0823
     27 N6         -0.3882    3.4724    4.0165 N.ar      1 <0>        -0.4267
     28 F1          0.4111   -0.4541   -2.7227 F         1 <0>        -0.1217
     29 H2          1.4114    1.5976   -0.3996 H         1 <0>         0.0859
     30 H3         -0.0419    1.5223   -1.4245 H         1 <0>         0.0833
     31 H4         -0.2053    1.6527    0.3431 H         1 <0>         0.0876
     32 H5          0.4082   -3.0524   -2.2842 H         1 <0>         0.1561
     33 H6          0.3860   -4.0695   -0.0201 H         1 <0>         0.1447
     34 H7          0.5754   -4.8181    2.0028 H         1 <0>         0.4468
     35 H8          0.8290   -7.4686    6.0544 H         1 <0>         0.0831
     36 H9          1.6509   -6.5711    7.3533 H         1 <0>         0.0872
     37 H10        -0.1120   -6.8091    7.4137 H         1 <0>         0.0869
     38 H11        -1.5292   -0.4824    2.2133 H         1 <0>         0.1335
     39 H12        -1.8120    1.9212    2.4218 H         1 <0>         0.1439
     40 H13         1.6354   -0.4353    5.1088 H         1 <0>         0.1406
     41 H14         1.9790    4.0402    6.2793 H         1 <0>         0.1771
     42 H15         0.2642    5.2055    4.9479 H         1 <0>         0.1771
@<TRIPOS>BOND
     1    1    2 1
     2    1   29 1
     3    1   30 1
     4    1   31 1
     5    2    7 ar
     6    2    3 ar
     7    3    4 ar
     8    3   28 1
     9    4    5 ar
    10    4   32 1
    11    5    6 ar
    12    5   33 1
    13    6    7 ar
    14    6    8 1
    15    8   13 1
    16    8    9 2
    17    9   18 1
    18    9   10 1
    19   10   12 1
    20   10   11 1
    21   12   14 2
    22   12   13 1
    23   13   34 1
    24   14   15 1
    25   15   17 1
    26   15   16 2
    27   17   35 1
    28   17   36 1
    29   17   37 1
    30   18   23 ar
    31   18   19 ar
    32   19   20 ar
    33   19   38 1
    34   20   21 ar
    35   20   39 1
    36   21   27 ar
    37   21   22 ar
    38   22   23 ar
    39   22   24 ar
    40   23   40 1
    41   24   25 ar
    42   25   26 ar
    43   25   41 1
    44   26   27 ar
    45   26   42 1
@<TRIPOS>MOLECULE
CHEMBL519939__3
   43    46     0     0     0
SMALL
NO_CHARGES

@<TRIPOS>ATOM
      1 C1         -0.4203    1.7125    0.4538 C.3       1 <0>        -0.1085
      2 C2         -0.4028    0.2110    0.3265 C.ar      1 <0>         0.1238
      3 C3         -0.5277   -0.3703   -0.9248 C.ar      1 <0>         0.0420
      4 C4         -0.5110   -1.7560   -1.0379 C.ar      1 <0>        -0.0922
      5 C5         -0.3693   -2.5107    0.1120 C.ar      1 <0>        -0.1440
      6 C6         -0.2483   -1.8587    1.3412 C.ar      1 <0>         0.1855
      7 N1         -0.2635   -0.5309    1.4058 N.ar      1 <0>        -0.4432
      8 C7         -0.0968   -2.6498    2.5774 C.2       1 <0>         0.0741
      9 C8         -0.0500   -2.1575    3.8454 C.2       1 <0>         0.1332
     10 N2          0.0987   -3.2311    4.7086 N.pl3     1 <0>        -0.5593
     11 H1          0.1608   -3.1799    5.6753 H         1 <0>         0.4402
     12 C9          0.1416   -4.3675    3.9663 C.2       1 <0>         0.3986
     13 N3          0.0175   -4.0294    2.6572 N.pl3     1 <0>        -0.6098
     14 N4          0.2777   -5.6046    4.4422 N.2       1 <0>        -0.5241
     15 C10         0.4440   -6.6232    3.6062 C.2       1 <0>         0.1438
     16 O1          0.5694   -6.4173    2.4141 O.3       1 <0>        -0.4582
     17 C11         0.4772   -8.0341    4.1347 C.3       1 <0>        -0.0791
     18 C12        -0.1411   -0.7361    4.2314 C.ar      1 <0>         0.0051
     19 C13        -1.2417    0.0335    3.8091 C.ar      1 <0>        -0.0320
     20 C14        -1.3470    1.3419    4.1511 C.ar      1 <0>        -0.0882
     21 C15        -0.3494    1.9481    4.9382 C.ar      1 <0>         0.0925
     22 C16         0.7649    1.1832    5.3706 C.ar      1 <0>         0.0766
     23 C17         0.8544   -0.1700    5.0116 C.ar      1 <0>        -0.0598
     24 N5          1.7122    1.7605    6.1195 N.ar      1 <0>        -0.4228
     25 C18         1.6012    3.0283    6.4464 C.ar      1 <0>         0.0742
     26 C19         0.5051    3.7802    6.0208 C.ar      1 <0>         0.0801
     27 N6         -0.4377    3.2361    5.2845 N.ar      1 <0>        -0.4265
     28 F1         -0.6648    0.4020   -2.0247 F         1 <0>        -0.1247
     29 H2          0.6026    2.0891    0.4540 H         1 <0>         0.0839
     30 H3         -0.9654    2.1420   -0.3868 H         1 <0>         0.0818
     31 H4         -0.9107    1.9925    1.3861 H         1 <0>         0.0860
     32 H5         -0.6071   -2.2322   -2.0024 H         1 <0>         0.1526
     33 H6         -0.3527   -3.5893    0.0604 H         1 <0>         0.1401
     34 H7          0.0117   -4.6455    1.9080 H         1 <0>         0.4333
     35 H8         -0.5333   -8.4428    4.1432 H         1 <0>         0.0696
     36 H9          1.1117   -8.6470    3.4946 H         1 <0>         0.0691
     37 H10         0.8771   -8.0329    5.1487 H         1 <0>         0.0754
     38 H11        -2.0117   -0.4235    3.2051 H         1 <0>         0.1330
     39 H12        -2.1970    1.9195    3.8189 H         1 <0>         0.1428
     40 H13         1.6949   -0.7649    5.3372 H         1 <0>         0.1402
     41 H14         2.3658    3.4932    7.0510 H         1 <0>         0.1762
     42 H15         0.4308    4.8209    6.2998 H         1 <0>         0.1763
     43 H16         1.3102   -5.8372    2.1910 H         1 <0>         0.3424
@<TRIPOS>BOND
     1    1    2 1
     2    1   29 1
     3    1   30 1
     4    1   31 1
     5    2    7 ar
     6    2    3 ar
     7    3    4 ar
     8    3   28 1
     9    4    5 ar
    10    4   32 1
    11    5    6 ar
    12    5   33 1
    13    6    7 ar
    14    6    8 1
    15    8   13 1
    16    8    9 2
    17    9   18 1
    18    9   10 1
    19   10   12 1
    20   10   11 1
    21   12   14 2
    22   12   13 1
    23   13   34 1
    24   14   15 1
    25   15   17 1
    26   15   16 2
    27   16   43 1
    28   17   35 1
    29   17   36 1
    30   17   37 1
    31   18   23 ar
    32   18   19 ar
    33   19   20 ar
    34   19   38 1
    35   20   21 ar
    36   20   39 1
    37   21   27 ar
    38   21   22 ar
    39   22   23 ar
    40   22   24 ar
    41   23   40 1
    42   24   25 ar
    43   25   26 ar
    44   25   41 1
    45   26   27 ar
    46   26   42 1
@<TRIPOS>MOLECULE
CHEMBL410456
   48    52     0     0     0
SMALL
USER_CHARGES

@<TRIPOS>ATOM
      1 C1         -0.0167    1.3784    0.0096 C.ar      1 <0>        -0.0672
      2 C2          1.1942    2.0587    0.0017 C.ar      1 <0>        -0.1687
      3 C3          2.3763    1.3417   -0.0134 C.ar      1 <0>         0.1111
      4 N1          2.3693    0.0244   -0.0204 N.ar      1 <0>        -0.4534
      5 C4          1.2328   -0.6657   -0.0133 C.ar      1 <0>         0.1937
      6 C5          0.0021   -0.0041    0.0020 C.ar      1 <0>        -0.1667
      7 C6          1.2714   -2.1398   -0.0216 C.2       1 <0>         0.0347
      8 C7          2.2970   -2.9416   -0.4999 C.2       1 <0>         0.1090
      9 N2          1.9339   -4.2194   -0.3200 N.2       1 <0>        -0.4533
     10 C8          0.7459   -4.2650    0.2406 C.2       1 <0>         0.2608
     11 N3          0.2999   -2.9925    0.4490 N.pl3     1 <0>        -0.5481
     12 H1         -0.5448   -2.7370    0.8516 H         1 <0>         0.4243
     13 C9          0.0129   -5.4979    0.5945 C.ar      1 <0>         0.0120
     14 C10        -1.2515   -5.4143    1.1833 C.ar      1 <0>        -0.1176
     15 C11        -1.9345   -6.5627    1.5126 C.ar      1 <0>        -0.0525
     16 C12        -1.3635   -7.8124    1.2582 C.ar      1 <0>        -0.1301
     17 C13        -0.0990   -7.8960    0.6694 C.ar      1 <0>        -0.0813
     18 C14         0.5816   -6.7476    0.3352 C.ar      1 <0>        -0.0821
     19 C15        -2.0964   -9.0452    1.6121 C.2       1 <0>         0.5625
     20 O1         -3.1964   -8.9725    2.1247 O.2       1 <0>        -0.5372
     21 N4         -1.5457  -10.2506    1.3667 N.am      1 <0>        -0.8492
     22 C16         3.5663   -2.4704   -1.1017 C.ar      1 <0>         0.0000
     23 C17         3.5842   -1.3119   -1.8779 C.ar      1 <0>        -0.0577
     24 C18         4.7668   -0.8758   -2.4377 C.ar      1 <0>        -0.1185
     25 C19         5.9420   -1.5859   -2.2315 C.ar      1 <0>         0.0580
     26 C20         5.9307   -2.7408   -1.4561 C.ar      1 <0>         0.0434
     27 C21         4.7467   -3.1807   -0.8886 C.ar      1 <0>        -0.0801
     28 O2          7.0755   -3.4444   -1.2377 O.3       1 <0>        -0.3072
     29 C22         8.1712   -3.1811   -2.1208 C.3       1 <0>         0.0207
     30 C23         8.3188   -1.6602   -2.2631 C.3       1 <0>         0.0204
     31 O3          7.0969   -1.1394   -2.7973 O.3       1 <0>        -0.3079
     32 H2         -0.9524    1.9175    0.0259 H         1 <0>         0.1392
     33 H3          1.2122    3.1385    0.0070 H         1 <0>         0.1397
     34 H4          3.3188    1.8691   -0.0200 H         1 <0>         0.1634
     35 H5         -0.9211   -0.5645    0.0082 H         1 <0>         0.1297
     36 H6         -1.6927   -4.4484    1.3803 H         1 <0>         0.1268
     37 H7         -2.9117   -6.4980    1.9680 H         1 <0>         0.1437
     38 H8          0.3423   -8.8619    0.4727 H         1 <0>         0.1351
     39 H9          1.5570   -6.8122   -0.1239 H         1 <0>         0.1477
     40 H10        -0.6681  -10.3086    0.9577 H         1 <0>         0.4021
     41 H11        -2.0270  -11.0601    1.5991 H         1 <0>         0.4076
     42 H12         2.6723   -0.7567   -2.0409 H         1 <0>         0.1241
     43 H13         4.7787    0.0212   -3.0391 H         1 <0>         0.1336
     44 H14         4.7369   -4.0761   -0.2849 H         1 <0>         0.1373
     45 H15         9.0870   -3.6021   -1.7059 H         1 <0>         0.1217
     46 H16         7.9715   -3.6239   -3.0966 H         1 <0>         0.0773
     47 H17         8.5114   -1.2166   -1.2862 H         1 <0>         0.0777
     48 H18         9.1424   -1.4325   -2.9397 H         1 <0>         0.1216
@<TRIPOS>BOND
     1    1    6 ar
     2    1    2 ar
     3    1   32 1
     4    2    3 ar
     5    2   33 1
     6    3    4 ar
     7    3   34 1
     8    4    5 ar
     9    5    6 ar
    10    5    7 1
    11    6   35 1
    12    7   11 1
    13    7    8 2
    14    8    9 1
    15    8   22 1
    16    9   10 2
    17   10   11 1
    18   10   13 1
    19   11   12 1
    20   13   18 ar
    21   13   14 ar
    22   14   15 ar
    23   14   36 1
    24   15   16 ar
    25   15   37 1
    26   16   17 ar
    27   16   19 1
    28   17   18 ar
    29   17   38 1
    30   18   39 1
    31   19   20 2
    32   19   21 am
    33   21   40 1
    34   21   41 1
    35   22   27 ar
    36   22   23 ar
    37   23   24 ar
    38   23   42 1
    39   24   25 ar
    40   24   43 1
    41   25   31 1
    42   25   26 ar
    43   26   27 ar
    44   26   28 1
    45   27   44 1
    46   28   29 1
    47   29   30 1
    48   29   45 1
    49   29   46 1
    50   30   31 1
    51   30   47 1
    52   30   48 1
@<TRIPOS>MOLECULE
CHEMBL410456__1
   48    52     0     0     0
SMALL
USER_CHARGES

@<TRIPOS>ATOM
      1 C1         -0.0167    1.3789    0.0096 C.ar      1 <0>        -0.0760
      2 C2          1.1941    2.0586    0.0017 C.ar      1 <0>        -0.1722
      3 C3          2.3751    1.3408   -0.0134 C.ar      1 <0>         0.1031
      4 N1          2.3663    0.0230   -0.0208 N.ar      1 <0>        -0.4662
      5 C4          1.2307   -0.6650   -0.0137 C.ar      1 <0>         0.2043
      6 C5          0.0021   -0.0041    0.0020 C.ar      1 <0>        -0.1413
      7 C6          1.2685   -2.1448   -0.0225 C.2       1 <0>         0.0622
      8 C7          2.3023   -2.9340   -0.5056 C.2       1 <0>         0.0852
      9 N2          1.9164   -4.2375   -0.3156 N.pl3     1 <0>        -0.5510
     10 C8          0.6805   -4.2121    0.2676 C.2       1 <0>         0.2474
     11 N3          0.3115   -2.9636    0.4406 N.2       1 <0>        -0.4438
     12 H1          2.4255   -5.0288   -0.5513 H         1 <0>         0.4261
     13 C9         -0.1115   -5.3995    0.6478 C.ar      1 <0>         0.0159
     14 C10         0.3976   -6.6810    0.4208 C.ar      1 <0>        -0.1185
     15 C11        -0.3375   -7.7833    0.7737 C.ar      1 <0>        -0.0514
     16 C12        -1.5961   -7.6252    1.3604 C.ar      1 <0>        -0.1321
     17 C13        -2.1053   -6.3436    1.5874 C.ar      1 <0>        -0.0809
     18 C14        -1.3676   -5.2413    1.2397 C.ar      1 <0>        -0.0850
     19 C15        -2.3883   -8.8125    1.7401 C.2       1 <0>         0.5625
     20 O1         -1.9455   -9.9273    1.5423 O.2       1 <0>        -0.5372
     21 N4         -3.6020   -8.6600    2.3059 N.am      1 <0>        -0.8495
     22 C16         3.5664   -2.4649   -1.1051 C.ar      1 <0>        -0.0120
     23 C17         3.5551   -1.4326   -2.0465 C.ar      1 <0>        -0.0527
     24 C18         4.7376   -0.9975   -2.6050 C.ar      1 <0>        -0.1113
     25 C19         5.9430   -1.5810   -2.2358 C.ar      1 <0>         0.0632
     26 C20         5.9618   -2.6083   -1.2970 C.ar      1 <0>         0.0505
     27 C21         4.7787   -3.0474   -0.7290 C.ar      1 <0>        -0.0989
     28 O2          7.1357   -3.1850   -0.9192 O.3       1 <0>        -0.3073
     29 C22         8.2625   -2.9725   -1.7764 C.3       1 <0>         0.0204
     30 C23         8.3169   -1.4820   -2.1376 C.3       1 <0>         0.0198
     31 O3          7.0976   -1.1376   -2.8042 O.3       1 <0>        -0.3055
     32 H2         -0.9523    1.9181    0.0259 H         1 <0>         0.1364
     33 H3          1.2128    3.1385    0.0070 H         1 <0>         0.1352
     34 H4          3.3182    1.8671   -0.0196 H         1 <0>         0.1571
     35 H5         -0.9212   -0.5644    0.0082 H         1 <0>         0.1398
     36 H6          1.3701   -6.8031   -0.0329 H         1 <0>         0.1272
     37 H7          0.0558   -8.7736    0.5980 H         1 <0>         0.1434
     38 H8         -3.0779   -6.2214    2.0408 H         1 <0>         0.1343
     39 H9         -1.7590   -4.2509    1.4195 H         1 <0>         0.1461
     40 H10        -3.9552   -7.7705    2.4638 H         1 <0>         0.4019
     41 H11        -4.1222   -9.4398    2.5553 H         1 <0>         0.4074
     42 H12         2.6203   -0.9760   -2.3366 H         1 <0>         0.1282
     43 H13         4.7270   -0.1998   -3.3330 H         1 <0>         0.1382
     44 H14         4.7925   -3.8428    0.0014 H         1 <0>         0.1309
     45 H15         9.1777   -3.2589   -1.2584 H         1 <0>         0.1238
     46 H16         8.1515   -3.5667   -2.6835 H         1 <0>         0.0784
     47 H17         8.4204   -0.8874   -1.2300 H         1 <0>         0.0797
     48 H18         9.1628   -1.2946   -2.7989 H         1 <0>         0.1240
@<TRIPOS>BOND
     1    1    6 ar
     2    1    2 ar
     3    1   32 1
     4    2    3 ar
     5    2   33 1
     6    3    4 ar
     7    3   34 1
     8    4    5 ar
     9    5    6 ar
    10    5    7 1
    11    6   35 1
    12    7   11 1
    13    7    8 2
    14    8   22 1
    15    8    9 1
    16    9   10 1
    17    9   12 1
    18   10   13 1
    19   10   11 2
    20   13   18 ar
    21   13   14 ar
    22   14   15 ar
    23   14   36 1
    24   15   16 ar
    25   15   37 1
    26   16   17 ar
    27   16   19 1
    28   17   18 ar
    29   17   38 1
    30   18   39 1
    31   19   20 2
    32   19   21 am
    33   21   40 1
    34   21   41 1
    35   22   27 ar
    36   22   23 ar
    37   23   24 ar
    38   23   42 1
    39   24   25 ar
    40   24   43 1
    41   25   31 1
    42   25   26 ar
    43   26   27 ar
    44   26   28 1
    45   27   44 1
    46   28   29 1
    47   29   30 1
    48   29   45 1
    49   29   46 1
    50   30   31 1
    51   30   47 1
    52   30   48 1
@<TRIPOS>MOLECULE
CHEMBL574415
   51    53     0     0     0
SMALL
USER_CHARGES

@<TRIPOS>ATOM
      1 C1         -5.0157   -2.0608    2.1428 C.3       1 <0>        -0.1025
      2 C2         -3.7413   -2.6122    1.5571 C.ar      1 <0>         0.1052
      3 C3         -3.7900   -3.3430    0.3845 C.ar      1 <0>        -0.1400
      4 C4         -2.6144   -3.8462   -0.1481 C.ar      1 <0>        -0.1405
      5 C5         -1.4225   -3.5937    0.5243 C.ar      1 <0>         0.0630
      6 C6         -1.4542   -2.8519    1.6961 C.ar      1 <0>         0.1226
      7 N1         -2.5943   -2.3865    2.1670 N.ar      1 <0>        -0.4499
      8 C7         -0.1716   -2.5703    2.4354 C.3       1 <0>        -0.0997
      9 O1         -0.2443   -4.0674    0.0401 O.3       1 <0>        -0.2468
     10 C8         -0.2787   -4.8438   -1.0728 C.ar      1 <0>         0.1692
     11 C9         -0.4232   -4.2735   -2.3373 C.ar      1 <0>        -0.2348
     12 C10        -0.4537   -5.0922   -3.4460 C.ar      1 <0>         0.1618
     13 N2         -0.3487   -6.4026   -3.3247 N.ar      1 <0>        -0.5212
     14 C11        -0.2100   -6.9849   -2.1423 C.ar      1 <0>         0.4066
     15 C12        -0.1649   -6.2258   -0.9803 C.ar      1 <0>        -0.2286
     16 N3         -0.1036   -8.3696   -2.0648 N.pl3     1 <0>        -0.6567
     17 C13        -0.0322   -9.1326   -3.2361 C.ar      1 <0>         0.2382
     18 C14         0.5945   -8.6173   -4.3627 C.ar      1 <0>        -0.2321
     19 C15         0.6653   -9.3721   -5.5231 C.ar      1 <0>         0.1696
     20 C16         0.1091  -10.6452   -5.5585 C.ar      1 <0>         0.0077
     21 C17        -0.5177  -11.1605   -4.4302 C.ar      1 <0>         0.1711
     22 C18        -0.5831  -10.4066   -3.2689 C.ar      1 <0>        -0.2689
     23 O2         -1.0627  -12.4060   -4.4641 O.3       1 <0>        -0.2996
     24 C19        -1.6911  -12.8719   -3.2682 C.3       1 <0>         0.0246
     25 O3          0.1778  -11.3872   -6.6983 O.3       1 <0>        -0.3108
     26 C20         1.3176  -12.2352   -6.8527 C.3       1 <0>         0.0345
     27 O4          1.2784   -8.8669   -6.6268 O.3       1 <0>        -0.2995
     28 C21         1.8274   -7.5519   -6.5193 C.3       1 <0>         0.0258
     29 H1         -5.2015   -1.0663    1.7371 H         1 <0>         0.0794
     30 H2         -5.8469   -2.7183    1.8882 H         1 <0>         0.0759
     31 H3         -4.9203   -1.9988    3.2269 H         1 <0>         0.0787
     32 H4         -4.7336   -3.5197   -0.1103 H         1 <0>         0.1405
     33 H5         -2.6227   -4.4208   -1.0625 H         1 <0>         0.1394
     34 H6          0.2612   -1.6389    2.0704 H         1 <0>         0.0801
     35 H7         -0.3789   -2.4812    3.5018 H         1 <0>         0.0800
     36 H8          0.5307   -3.3871    2.2688 H         1 <0>         0.0788
     37 H9         -0.5106   -3.2027   -2.4467 H         1 <0>         0.1437
     38 H10        -0.5655   -4.6556   -4.4275 H         1 <0>         0.1689
     39 H11        -0.0473   -6.7028   -0.0184 H         1 <0>         0.1441
     40 H12         1.0267   -7.6279   -4.3351 H         1 <0>         0.1509
     41 H13        -1.0666  -10.8085   -2.3908 H         1 <0>         0.1361
     42 H14        -2.5086  -12.2017   -3.0025 H         1 <0>         0.0576
     43 H15        -2.0828  -13.8760   -3.4311 H         1 <0>         0.1037
     44 H16        -0.9613  -12.8935   -2.4589 H         1 <0>         0.0565
     45 H17         1.3498  -12.9533   -6.0333 H         1 <0>         0.0428
     46 H18         1.2480  -12.7685   -7.8007 H         1 <0>         0.0916
     47 H19         2.2244  -11.6305   -6.8417 H         1 <0>         0.0432
     48 H20         2.2858   -7.2709   -7.4674 H         1 <0>         0.1023
     49 H21         1.0337   -6.8456   -6.2760 H         1 <0>         0.0618
     50 H22         2.5814   -7.5363   -5.7323 H         1 <0>         0.0537
     51 H23        -0.0790   -8.8064   -1.1991 H         1 <0>         0.4220
@<TRIPOS>BOND
     1    1    2 1
     2    1   29 1
     3    1   30 1
     4    1   31 1
     5    2    7 ar
     6    2    3 ar
     7    3    4 ar
     8    3   32 1
     9    4    5 ar
    10    4   33 1
    11    5    6 ar
    12    5    9 1
    13    6    7 ar
    14    6    8 1
    15    8   34 1
    16    8   35 1
    17    8   36 1
    18    9   10 1
    19   10   11 ar
    20   10   15 ar
    21   11   37 1
    22   11   12 ar
    23   12   38 1
    24   12   13 ar
    25   13   14 ar
    26   14   16 1
    27   14   15 ar
    28   15   39 1
    29   16   17 1
    30   16   51 1
    31   17   22 ar
    32   17   18 ar
    33   18   19 ar
    34   18   40 1
    35   19   20 ar
    36   19   27 1
    37   20   21 ar
    38   20   25 1
    39   21   22 ar
    40   21   23 1
    41   22   41 1
    42   23   24 1
    43   24   42 1
    44   24   43 1
    45   24   44 1
    46   25   26 1
    47   26   45 1
    48   26   46 1
    49   26   47 1
    50   27   28 1
    51   28   48 1
    52   28   49 1
    53   28   50 1
@<TRIPOS>MOLECULE
CHEMBL574415__1
   52    54     0     0     0
SMALL
USER_CHARGES

@<TRIPOS>ATOM
      1 C1         -6.0147   -2.4867    1.4431 C.3       1 <0>        -0.1117
      2 C2         -4.6380   -2.9304    1.0201 C.ar      1 <0>         0.1303
      3 C3         -4.4845   -3.6608   -0.1437 C.ar      1 <0>        -0.1410
      4 C4         -3.2158   -4.0647   -0.5262 C.ar      1 <0>        -0.1411
      5 C5         -2.1387   -3.7161    0.2830 C.ar      1 <0>         0.0378
      6 C6         -2.3726   -2.9814    1.4362 C.ar      1 <0>         0.1483
      7 N1         -3.5956   -2.6122    1.7621 N.ar      1 <0>        -0.4433
      8 C7         -1.2163   -2.5964    2.3226 C.3       1 <0>        -0.1095
      9 O1         -0.8758   -4.0905   -0.0514 O.3       1 <0>        -0.2378
     10 C8         -0.7122   -4.8711   -1.1498 C.ar      1 <0>         0.2520
     11 C9         -0.7637   -4.3216   -2.4306 C.ar      1 <0>        -0.1906
     12 C10        -0.5929   -5.1440   -3.5238 C.ar      1 <0>         0.1725
     13 N2         -0.3829   -6.4385   -3.3725 N.ar      1 <0>        -0.5011
     14 C11        -0.3272   -7.0009   -2.1737 C.ar      1 <0>         0.4572
     15 C12        -0.4838   -6.2363   -1.0251 C.ar      1 <0>        -0.2098
     16 N3         -0.1045   -8.3695   -2.0648 N.pl3     1 <0>        -0.6344
     17 C13        -0.2347   -9.0032   -0.8236 C.ar      1 <0>         0.1889
     18 C14        -1.2897   -8.6733    0.0166 C.ar      1 <0>        -0.2607
     19 C15        -1.4190   -9.3001    1.2461 C.ar      1 <0>         0.1788
     20 C16        -0.4927  -10.2592    1.6376 C.ar      1 <0>         0.0434
     21 C17         0.5628  -10.5892    0.7959 C.ar      1 <0>         0.1803
     22 C18         0.6879   -9.9654   -0.4356 C.ar      1 <0>        -0.2345
     23 O2          1.4700  -11.5273    1.1784 O.3       1 <0>        -0.2885
     24 C19         2.5290  -11.8168    0.2635 C.3       1 <0>         0.0196
     25 O3         -0.6188  -10.8751    2.8456 O.3       1 <0>        -0.3082
     26 C20        -1.3919  -12.0764    2.8837 C.3       1 <0>         0.0337
     27 O4         -2.4519   -8.9762    2.0693 O.3       1 <0>        -0.2865
     28 C21        -3.3660   -7.9817    1.6029 C.3       1 <0>         0.0226
     29 H1         -6.2309   -1.5102    1.0096 H         1 <0>         0.0870
     30 H2         -6.7524   -3.2099    1.0954 H         1 <0>         0.0812
     31 H3         -6.0566   -2.4189    2.5302 H         1 <0>         0.0853
     32 H4         -5.3436   -3.9137   -0.7473 H         1 <0>         0.1476
     33 H5         -3.0663   -4.6365   -1.4302 H         1 <0>         0.1337
     34 H6         -0.8202   -1.6319    2.0047 H         1 <0>         0.0875
     35 H7         -1.5577   -2.5264    3.3554 H         1 <0>         0.0883
     36 H8         -0.4345   -3.3523    2.2488 H         1 <0>         0.0811
     37 H9         -0.9357   -3.2639   -2.5646 H         1 <0>         0.1914
     38 H10        -0.6318   -4.7234   -4.5178 H         1 <0>         0.2206
     39 H11        -0.4331   -6.6965   -0.0494 H         1 <0>         0.1943
     40 H12        -0.2665   -6.9930   -4.1599 H         1 <0>         0.4480
     41 H13        -2.0095   -7.9279   -0.2878 H         1 <0>         0.1419
     42 H14         1.5058  -10.2247   -1.0915 H         1 <0>         0.1491
     43 H15         3.1055  -10.9108    0.0767 H         1 <0>         0.0619
     44 H16         3.1796  -12.5799    0.6905 H         1 <0>         0.1138
     45 H17         2.1094  -12.1803   -0.6746 H         1 <0>         0.0610
     46 H18        -1.4120  -12.4632    3.9026 H         1 <0>         0.1020
     47 H19        -2.4094  -11.8642    2.5554 H         1 <0>         0.0484
     48 H20        -0.9438  -12.8179    2.2223 H         1 <0>         0.0490
     49 H21        -2.8294   -7.0496    1.4256 H         1 <0>         0.0543
     50 H22        -3.8262   -8.3184    0.6739 H         1 <0>         0.0594
     51 H23        -4.1394   -7.8186    2.3533 H         1 <0>         0.1137
     52 H24         0.1410   -8.8849   -2.8491 H         1 <0>         0.4329
@<TRIPOS>BOND
     1    1    2 1
     2    1   29 1
     3    1   30 1
     4    1   31 1
     5    2    7 ar
     6    2    3 ar
     7    3    4 ar
     8    3   32 1
     9    4    5 ar
    10    4   33 1
    11    5    6 ar
    12    5    9 1
    13    6    7 ar
    14    6    8 1
    15    8   34 1
    16    8   35 1
    17    8   36 1
    18    9   10 1
    19   10   11 ar
    20   10   15 ar
    21   11   37 1
    22   11   12 ar
    23   12   38 1
    24   12   13 ar
    25   13   40 1
    26   13   14 ar
    27   14   16 1
    28   14   15 ar
    29   15   39 1
    30   16   17 1
    31   16   52 1
    32   17   22 ar
    33   17   18 ar
    34   18   19 ar
    35   18   41 1
    36   19   20 ar
    37   19   27 1
    38   20   21 ar
    39   20   25 1
    40   21   22 ar
    41   21   23 1
    42   22   42 1
    43   23   24 1
    44   24   43 1
    45   24   44 1
    46   24   45 1
    47   25   26 1
    48   26   46 1
    49   26   47 1
    50   26   48 1
    51   27   28 1
    52   28   49 1
    53   28   50 1
    54   28   51 1
@<TRIPOS>MOLECULE
CHEMBL574415__2
   51    53     0     0     0
SMALL
USER_CHARGES

@<TRIPOS>ATOM
      1 C1          2.5779   -4.4782    4.2641 C.3       1 <0>        -0.1030
      2 C2          1.6521   -4.3600    3.0809 C.ar      1 <0>         0.1070
      3 C3          2.0274   -4.8998    1.8646 C.ar      1 <0>        -0.1418
      4 C4          1.1709   -4.7877    0.7817 C.ar      1 <0>        -0.1392
      5 C5         -0.0424   -4.1308    0.9635 C.ar      1 <0>         0.0615
      6 C6         -0.3486   -3.6154    2.2145 C.ar      1 <0>         0.1264
      7 N1          0.4926   -3.7480    3.2209 N.ar      1 <0>        -0.4495
      8 C7         -1.6587   -2.9016    2.4267 C.3       1 <0>        -0.1019
      9 O1         -0.9147   -3.9959   -0.0699 O.3       1 <0>        -0.2447
     10 C8         -0.6166   -4.6131   -1.2389 C.2       1 <0>         0.1888
     11 C9         -0.6004   -6.0219   -1.3167 C.2       1 <0>        -0.2609
     12 C10        -0.3031   -6.6339   -2.4803 C.2       1 <0>         0.1678
     13 N2         -0.0144   -5.9100   -3.5980 N.pl3     1 <0>        -0.5841
     14 C11        -0.0200   -4.5365   -3.5633 C.2       1 <0>         0.4413
     15 C12        -0.3315   -3.8704   -2.3653 C.2       1 <0>        -0.2312
     16 N3          0.2633   -3.8408   -4.6585 N.2       1 <0>        -0.5967
     17 C13         0.3817   -2.4812   -4.5927 C.ar      1 <0>         0.2211
     18 C14         1.2982   -1.8997   -3.7126 C.ar      1 <0>        -0.2804
     19 C15         1.4153   -0.5218   -3.6486 C.ar      1 <0>         0.1698
     20 C16         0.6220    0.2834   -4.4585 C.ar      1 <0>         0.0021
     21 C17        -0.2911   -0.2916   -5.3355 C.ar      1 <0>         0.1698
     22 C18        -0.4094   -1.6689   -5.4094 C.ar      1 <0>        -0.2458
     23 O2         -1.0652    0.4999   -6.1253 O.3       1 <0>        -0.3012
     24 C19        -1.9817   -0.1574   -7.0027 C.3       1 <0>         0.0250
     25 O3          0.7394    1.6388   -4.3922 O.3       1 <0>        -0.3111
     26 C20         1.6880    2.2514   -5.2679 C.3       1 <0>         0.0346
     27 O4          2.3070    0.0449   -2.7924 O.3       1 <0>        -0.3006
     28 C21         3.0892   -0.8416   -1.9898 C.3       1 <0>         0.0270
     29 H1          2.3607   -5.3994    4.8048 H         1 <0>         0.0793
     30 H2          3.6109   -4.4957    3.9167 H         1 <0>         0.0759
     31 H3          2.4317   -3.6250    4.9265 H         1 <0>         0.0791
     32 H4          2.9774   -5.4028    1.7600 H         1 <0>         0.1405
     33 H5          1.4383   -5.1995   -0.1802 H         1 <0>         0.1404
     34 H6         -2.4179   -3.6199    2.7363 H         1 <0>         0.0804
     35 H7         -1.5383   -2.1438    3.2009 H         1 <0>         0.0809
     36 H8         -1.9675   -2.4247    1.4965 H         1 <0>         0.0802
     37 H9         -0.8267   -6.6119   -0.4409 H         1 <0>         0.1533
     38 H10        -0.2933   -7.7128   -2.5273 H         1 <0>         0.1807
     39 H11        -0.3432   -2.7912   -2.3264 H         1 <0>         0.1587
     40 H12         1.9142   -2.5245   -3.0828 H         1 <0>         0.1298
     41 H13        -1.1156   -2.1149   -6.0940 H         1 <0>         0.1365
     42 H14        -1.4307   -0.8035   -7.6860 H         1 <0>         0.0574
     43 H15        -2.6782   -0.7576   -6.4172 H         1 <0>         0.0573
     44 H16        -2.5354    0.5876   -7.5741 H         1 <0>         0.1030
     45 H17         2.6832    1.8606   -5.0561 H         1 <0>         0.0421
     46 H18         1.4234    2.0306   -6.3019 H         1 <0>         0.0428
     47 H19         1.6810    3.3304   -5.1135 H         1 <0>         0.0909
     48 H20         3.6773   -1.4933   -2.6360 H         1 <0>         0.0552
     49 H21         3.7577   -0.2614   -1.3537 H         1 <0>         0.1031
     50 H22         2.4294   -1.4462   -1.3676 H         1 <0>         0.0538
     51 H23         0.1974   -6.3688   -4.4260 H         1 <0>         0.4286
@<TRIPOS>BOND
     1    1    2 1
     2    1   29 1
     3    1   30 1
     4    1   31 1
     5    2    7 ar
     6    2    3 ar
     7    3    4 ar
     8    3   32 1
     9    4    5 ar
    10    4   33 1
    11    5    6 ar
    12    5    9 1
    13    6    7 ar
    14    6    8 1
    15    8   34 1
    16    8   35 1
    17    8   36 1
    18    9   10 1
    19   10   11 1
    20   10   15 2
    21   11   37 1
    22   11   12 2
    23   12   38 1
    24   12   13 1
    25   13   51 1
    26   13   14 1
    27   14   16 2
    28   14   15 1
    29   15   39 1
    30   16   17 1
    31   17   22 ar
    32   17   18 ar
    33   18   19 ar
    34   18   40 1
    35   19   20 ar
    36   19   27 1
    37   20   21 ar
    38   20   25 1
    39   21   22 ar
    40   21   23 1
    41   22   41 1
    42   23   24 1
    43   24   42 1
    44   24   43 1
    45   24   44 1
    46   25   26 1
    47   26   45 1
    48   26   46 1
    49   26   47 1
    50   27   28 1
    51   28   48 1
    52   28   49 1
    53   28   50 1
@<TRIPOS>MOLECULE
CHEMBL574415__3
   51    53     0     0     0
SMALL
USER_CHARGES

@<TRIPOS>ATOM
      1 C1          5.0221   -3.9740    3.2592 C.3       1 <0>        -0.1030
      2 C2          3.7988   -4.0240    2.3805 C.ar      1 <0>         0.1069
      3 C3          3.9052   -4.5103    1.0906 C.ar      1 <0>        -0.1415
      4 C4          2.7763   -4.5536    0.2889 C.ar      1 <0>        -0.1375
      5 C5          1.5712   -4.1021    0.8187 C.ar      1 <0>         0.0613
      6 C6          1.5440   -3.6281    2.1222 C.ar      1 <0>         0.1254
      7 N1          2.6405   -3.6084    2.8539 N.ar      1 <0>        -0.4505
      8 C7          0.2465   -3.1359    2.7098 C.3       1 <0>        -0.1010
      9 O1          0.4375   -4.1249    0.0698 O.3       1 <0>        -0.2426
     10 C8          0.4958   -4.7008   -1.1556 C.2       1 <0>         0.1806
     11 C9          0.7140   -6.0893   -1.2804 C.2       1 <0>        -0.2533
     12 C10         0.7722   -6.6601   -2.5000 C.2       1 <0>         0.1566
     13 N2          0.6222   -5.9137   -3.6300 N.pl3     1 <0>        -0.6251
     14 C11         0.4077   -4.5589   -3.5507 C.2       1 <0>         0.4413
     15 C12         0.3370   -3.9365   -2.2923 C.2       1 <0>        -0.1688
     16 N3          0.2633   -3.8408   -4.6585 N.2       1 <0>        -0.5757
     17 C13         0.2042   -4.4634   -5.8733 C.ar      1 <0>         0.1991
     18 C14        -0.7458   -5.4621   -6.1030 C.ar      1 <0>        -0.3014
     19 C15        -0.8027   -6.0907   -7.3351 C.ar      1 <0>         0.1738
     20 C16         0.0843   -5.7298   -8.3433 C.ar      1 <0>         0.0015
     21 C17         1.0310   -4.7364   -8.1184 C.ar      1 <0>         0.1731
     22 C18         1.0899   -4.0991   -6.8910 C.ar      1 <0>        -0.2451
     23 O2          1.8968   -4.3871   -9.1073 O.3       1 <0>        -0.3004
     24 C19         2.8432   -3.3591   -8.8077 C.3       1 <0>         0.0242
     25 O3          0.0259   -6.3511   -9.5540 O.3       1 <0>        -0.3113
     26 C20        -0.8266   -5.7684  -10.5418 C.3       1 <0>         0.0343
     27 O4         -1.7270   -7.0627   -7.5595 O.3       1 <0>        -0.3001
     28 C21        -2.6062   -7.3836   -6.4798 C.3       1 <0>         0.0258
     29 H1          5.1139   -4.9115    3.8078 H         1 <0>         0.0792
     30 H2          5.9077   -3.8264    2.6412 H         1 <0>         0.0760
     31 H3          4.9294   -3.1481    3.9644 H         1 <0>         0.0789
     32 H4          4.8573   -4.8521    0.7123 H         1 <0>         0.1405
     33 H5          2.8301   -4.9281   -0.7227 H         1 <0>         0.1412
     34 H6         -0.2717   -3.9649    3.1918 H         1 <0>         0.0800
     35 H7          0.4526   -2.3590    3.4460 H         1 <0>         0.0803
     36 H8         -0.3799   -2.7278    1.9165 H         1 <0>         0.0804
     37 H9          0.8351   -6.6967   -0.3956 H         1 <0>         0.1525
     38 H10         0.9404   -7.7237   -2.5828 H         1 <0>         0.1733
     39 H11         0.1647   -2.8730   -2.2168 H         1 <0>         0.1634
     40 H12        -1.4346   -5.7434   -5.3202 H         1 <0>         0.1313
     41 H13         1.8225   -3.3245   -6.7185 H         1 <0>         0.1388
     42 H14         2.3138   -2.4433   -8.5448 H         1 <0>         0.0590
     43 H15         3.4663   -3.6719   -7.9698 H         1 <0>         0.0575
     44 H16         3.4713   -3.1781   -9.6799 H         1 <0>         0.1043
     45 H17        -1.8518   -5.7506  -10.1720 H         1 <0>         0.0429
     46 H18        -0.4979   -4.7504  -10.7506 H         1 <0>         0.0436
     47 H19        -0.7804   -6.3599  -11.4562 H         1 <0>         0.0920
     48 H20        -3.1755   -6.4974   -6.1990 H         1 <0>         0.0571
     49 H21        -3.2915   -8.1720   -6.7912 H         1 <0>         0.1051
     50 H22        -2.0225   -7.7262   -5.6254 H         1 <0>         0.0532
     51 H23         0.6676   -6.3428   -4.4988 H         1 <0>         0.4230
@<TRIPOS>BOND
     1    1    2 1
     2    1   29 1
     3    1   30 1
     4    1   31 1
     5    2    7 ar
     6    2    3 ar
     7    3    4 ar
     8    3   32 1
     9    4    5 ar
    10    4   33 1
    11    5    6 ar
    12    5    9 1
    13    6    7 ar
    14    6    8 1
    15    8   34 1
    16    8   35 1
    17    8   36 1
    18    9   10 1
    19   10   11 1
    20   10   15 2
    21   11   37 1
    22   11   12 2
    23   12   38 1
    24   12   13 1
    25   13   51 1
    26   13   14 1
    27   14   16 2
    28   14   15 1
    29   15   39 1
    30   16   17 1
    31   17   22 ar
    32   17   18 ar
    33   18   19 ar
    34   18   40 1
    35   19   20 ar
    36   19   27 1
    37   20   21 ar
    38   20   25 1
    39   21   22 ar
    40   21   23 1
    41   22   41 1
    42   23   24 1
    43   24   42 1
    44   24   43 1
    45   24   44 1
    46   25   26 1
    47   26   45 1
    48   26   46 1
    49   26   47 1
    50   27   28 1
    51   28   48 1
    52   28   49 1
    53   28   50 1
@<TRIPOS>MOLECULE
CHEMBL585367
   44    46     0     0     0
SMALL
USER_CHARGES

@<TRIPOS>ATOM
      1 C1         -5.0135   -2.0580    2.1409 C.3       1 <0>        -0.1027
      2 C2         -3.7392   -2.6102    1.5557 C.ar      1 <0>         0.1060
      3 C3         -3.7879   -3.3413    0.3833 C.ar      1 <0>        -0.1399
      4 C4         -2.6123   -3.8453   -0.1488 C.ar      1 <0>        -0.1406
      5 C5         -1.4205   -3.5931    0.5238 C.ar      1 <0>         0.0621
      6 C6         -1.4522   -2.8509    1.6954 C.ar      1 <0>         0.1234
      7 N1         -2.5922   -2.3849    2.1658 N.ar      1 <0>        -0.4497
      8 C7         -0.1697   -2.5700    2.4352 C.3       1 <0>        -0.0999
      9 O1         -0.2424   -4.0675    0.0402 O.3       1 <0>        -0.2465
     10 C8         -0.2768   -4.8438   -1.0727 C.ar      1 <0>         0.1692
     11 C9         -0.4203   -4.2735   -2.3373 C.ar      1 <0>        -0.2306
     12 C10        -0.4508   -5.0922   -3.4461 C.ar      1 <0>         0.1636
     13 N2         -0.3463   -6.4026   -3.3247 N.ar      1 <0>        -0.5217
     14 C11        -0.2086   -6.9850   -2.1422 C.ar      1 <0>         0.4005
     15 C12        -0.1640   -6.2260   -0.9802 C.ar      1 <0>        -0.2252
     16 N3         -0.1023   -8.3698   -2.0647 N.pl3     1 <0>        -0.6597
     17 C13        -0.0305   -9.1317   -3.2342 C.ar      1 <0>         0.2267
     18 C14         0.5958   -8.6176   -4.3626 C.ar      1 <0>        -0.1423
     19 C15         0.6654   -9.3733   -5.5164 C.ar      1 <0>         0.0006
     20 C16         0.1121  -10.6402   -5.5495 C.ar      1 <0>        -0.7010
     21 C17        -0.5121  -11.1550   -4.4280 C.ar      1 <0>         0.0084
     22 C18        -0.5802  -10.4070   -3.2692 C.ar      1 <0>        -0.1777
     23 S1          0.2022  -11.6005   -7.0241 S.o2      1 <0>         2.7035
     24 O2         -0.8676  -12.5340   -6.9668 O.2       1 <0>        -0.9650
     25 O3          0.3555  -10.6824   -8.0979 O.2       1 <0>        -0.9620
     26 N4          1.6029  -12.4807   -6.9504 N.pl3     1 <0>        -1.2491
     27 H1         -5.1988   -1.0636    1.7348 H         1 <0>         0.0797
     28 H2         -5.8449   -2.7153    1.8862 H         1 <0>         0.0760
     29 H3         -4.9184   -1.9958    3.2250 H         1 <0>         0.0789
     30 H4         -4.7314   -3.5178   -0.1117 H         1 <0>         0.1408
     31 H5         -2.6206   -4.4201   -1.0631 H         1 <0>         0.1390
     32 H6          0.2639   -1.6390    2.0701 H         1 <0>         0.0804
     33 H7         -0.3775   -2.4804    3.5015 H         1 <0>         0.0802
     34 H8          0.5320   -3.3874    2.2692 H         1 <0>         0.0788
     35 H9         -0.5068   -3.2026   -2.4468 H         1 <0>         0.1454
     36 H10        -0.5621   -4.6555   -4.4276 H         1 <0>         0.1716
     37 H11        -0.0471   -6.7030   -0.0183 H         1 <0>         0.1450
     38 H12         1.0275   -7.6280   -4.3376 H         1 <0>         0.1465
     39 H13         1.1522   -8.9742   -6.3940 H         1 <0>         0.1446
     40 H14        -0.9435  -12.1447   -4.4573 H         1 <0>         0.1453
     41 H15        -1.0638  -10.8114   -2.3923 H         1 <0>         0.1350
     42 H16         1.6553  -13.3461   -7.3854 H         1 <0>         0.4213
     43 H17         2.3709  -12.1309   -6.4722 H         1 <0>         0.4168
     44 H18        -0.0779   -8.8067   -1.1990 H         1 <0>         0.4240
@<TRIPOS>BOND
     1    1    2 1
     2    1   27 1
     3    1   28 1
     4    1   29 1
     5    2    7 ar
     6    2    3 ar
     7    3    4 ar
     8    3   30 1
     9    4    5 ar
    10    4   31 1
    11    5    6 ar
    12    5    9 1
    13    6    7 ar
    14    6    8 1
    15    8   32 1
    16    8   33 1
    17    8   34 1
    18    9   10 1
    19   10   11 ar
    20   10   15 ar
    21   11   35 1
    22   11   12 ar
    23   12   36 1
    24   12   13 ar
    25   13   14 ar
    26   14   16 1
    27   14   15 ar
    28   15   37 1
    29   16   17 1
    30   16   44 1
    31   17   22 ar
    32   17   18 ar
    33   18   19 ar
    34   18   38 1
    35   19   20 ar
    36   19   39 1
    37   20   21 ar
    38   20   23 1
    39   21   22 ar
    40   21   40 1
    41   22   41 1
    42   23   24 2
    43   23   25 2
    44   23   26 1
    45   26   42 1
    46   26   43 1
@<TRIPOS>MOLECULE
CHEMBL585367__1
   45    47     0     0     0
SMALL
USER_CHARGES

@<TRIPOS>ATOM
      1 C1         -6.0236   -2.4917    1.4374 C.3       1 <0>        -0.1117
      2 C2         -4.6461   -2.9343    1.0156 C.ar      1 <0>         0.1316
      3 C3         -4.4909   -3.6640   -0.1484 C.ar      1 <0>        -0.1406
      4 C4         -3.2216   -4.0669   -0.5298 C.ar      1 <0>        -0.1396
      5 C5         -2.1455   -3.7180    0.2807 C.ar      1 <0>         0.0364
      6 C6         -2.3812   -2.9839    1.4340 C.ar      1 <0>         0.1492
      7 N1         -3.6047   -2.6157    1.7588 N.ar      1 <0>        -0.4435
      8 C7         -1.2260   -2.5990    2.3220 C.3       1 <0>        -0.1093
      9 O1         -0.8820   -4.0913   -0.0526 O.3       1 <0>        -0.2379
     10 C8         -0.7169   -4.8719   -1.1508 C.ar      1 <0>         0.2563
     11 C9         -0.7682   -4.3228   -2.4317 C.ar      1 <0>        -0.1881
     12 C10        -0.5958   -5.1452   -3.5247 C.ar      1 <0>         0.1744
     13 N2         -0.3839   -6.4393   -3.3730 N.ar      1 <0>        -0.4986
     14 C11        -0.3283   -7.0014   -2.1740 C.ar      1 <0>         0.4546
     15 C12        -0.4869   -6.2369   -1.0257 C.ar      1 <0>        -0.2103
     16 N3         -0.1031   -8.3698   -2.0647 N.pl3     1 <0>        -0.6432
     17 C13        -0.2331   -9.0026   -0.8254 C.ar      1 <0>         0.1756
     18 C14        -1.2885   -8.6748    0.0164 C.ar      1 <0>        -0.1647
     19 C15        -1.4142   -9.3023    1.2401 C.ar      1 <0>         0.0122
     20 C16        -0.4908  -10.2557    1.6281 C.ar      1 <0>        -0.6712
     21 C17         0.5610  -10.5845    0.7927 C.ar      1 <0>         0.0151
     22 C18         0.6895   -9.9649   -0.4349 C.ar      1 <0>        -0.1387
     23 S1         -0.6544  -11.0531    3.1909 S.o2      1 <0>         2.6994
     24 O2          0.6419  -11.5102    3.5512 O.2       1 <0>        -0.9507
     25 O3         -1.4102  -10.1776    4.0164 O.2       1 <0>        -0.9518
     26 N4         -1.5842  -12.4033    2.9567 N.pl3     1 <0>        -1.2471
     27 H1         -6.2400   -1.5152    1.0041 H         1 <0>         0.0871
     28 H2         -6.7604   -3.2153    1.0886 H         1 <0>         0.0815
     29 H3         -6.0666   -2.4244    2.5244 H         1 <0>         0.0856
     30 H4         -5.3492   -3.9173   -0.7530 H         1 <0>         0.1479
     31 H5         -3.0708   -4.6382   -1.4339 H         1 <0>         0.1334
     32 H6         -0.8299   -1.6342    2.0051 H         1 <0>         0.0874
     33 H7         -1.5687   -2.5297    3.3544 H         1 <0>         0.0888
     34 H8         -0.4439   -3.3547    2.2487 H         1 <0>         0.0809
     35 H9         -0.9414   -3.2652   -2.5660 H         1 <0>         0.1929
     36 H10        -0.6350   -4.7249   -4.5188 H         1 <0>         0.2220
     37 H11        -0.4362   -6.6968   -0.0499 H         1 <0>         0.1938
     38 H12        -0.2661   -6.9938   -4.1601 H         1 <0>         0.4488
     39 H13        -2.0096   -7.9297   -0.2858 H         1 <0>         0.1419
     40 H14        -2.2345   -9.0479    1.8950 H         1 <0>         0.1598
     41 H15         1.2806  -11.3293    1.0989 H         1 <0>         0.1622
     42 H16         1.5086  -10.2254   -1.0888 H         1 <0>         0.1499
     43 H17        -1.9209  -12.6127    2.0714 H         1 <0>         0.4168
     44 H18        -1.7922  -12.9846    3.7048 H         1 <0>         0.4271
     45 H19         0.1441   -8.8848   -2.8487 H         1 <0>         0.4347
@<TRIPOS>BOND
     1    1    2 1
     2    1   27 1
     3    1   28 1
     4    1   29 1
     5    2    7 ar
     6    2    3 ar
     7    3    4 ar
     8    3   30 1
     9    4    5 ar
    10    4   31 1
    11    5    6 ar
    12    5    9 1
    13    6    7 ar
    14    6    8 1
    15    8   32 1
    16    8   33 1
    17    8   34 1
    18    9   10 1
    19   10   11 ar
    20   10   15 ar
    21   11   35 1
    22   11   12 ar
    23   12   36 1
    24   12   13 ar
    25   13   38 1
    26   13   14 ar
    27   14   16 1
    28   14   15 ar
    29   15   37 1
    30   16   17 1
    31   16   45 1
    32   17   22 ar
    33   17   18 ar
    34   18   19 ar
    35   18   39 1
    36   19   20 ar
    37   19   40 1
    38   20   21 ar
    39   20   23 1
    40   21   22 ar
    41   21   41 1
    42   22   42 1
    43   23   24 2
    44   23   25 2
    45   23   26 1
    46   26   43 1
    47   26   44 1
@<TRIPOS>MOLECULE
CHEMBL585367__2
   44    46     0     0     0
SMALL
USER_CHARGES

@<TRIPOS>ATOM
      1 C1          5.0195   -3.9766    3.2601 C.3       1 <0>        -0.1034
      2 C2          3.7963   -4.0263    2.3812 C.ar      1 <0>         0.1083
      3 C3          3.9027   -4.5125    1.0913 C.ar      1 <0>        -0.1414
      4 C4          2.7740   -4.5551    0.2893 C.ar      1 <0>        -0.1374
      5 C5          1.5690   -4.1030    0.8189 C.ar      1 <0>         0.0598
      6 C6          1.5418   -3.6291    2.1224 C.ar      1 <0>         0.1267
      7 N1          2.6381   -3.6104    2.8545 N.ar      1 <0>        -0.4502
      8 C7          0.2445   -3.1358    2.7096 C.3       1 <0>        -0.1014
      9 O1          0.4354   -4.1251    0.0697 O.3       1 <0>        -0.2423
     10 C8          0.4937   -4.7009   -1.1555 C.2       1 <0>         0.1859
     11 C9          0.7109   -6.0892   -1.2805 C.2       1 <0>        -0.2499
     12 C10         0.7685   -6.6596   -2.5008 C.2       1 <0>         0.1571
     13 N2          0.6188   -5.9129   -3.6300 N.pl3     1 <0>        -0.6232
     14 C11         0.4053   -4.5587   -3.5505 C.2       1 <0>         0.4482
     15 C12         0.3356   -3.9363   -2.2928 C.2       1 <0>        -0.1717
     16 N3          0.2611   -3.8401   -4.6590 N.2       1 <0>        -0.5872
     17 C13         0.2015   -4.4619   -5.8722 C.ar      1 <0>         0.1916
     18 C14        -0.7489   -5.4613   -6.1038 C.ar      1 <0>        -0.2141
     19 C15        -0.8027   -6.0849   -7.3323 C.ar      1 <0>         0.0100
     20 C16         0.0806   -5.7242   -8.3349 C.ar      1 <0>        -0.7077
     21 C17         1.0244   -4.7363   -8.1133 C.ar      1 <0>         0.0078
     22 C18         1.0868   -4.0990   -6.8921 C.ar      1 <0>        -0.1563
     23 S1          0.0037   -6.5271   -9.9015 S.o2      1 <0>         2.7039
     24 O2          1.2900   -6.3930  -10.4902 O.2       1 <0>        -0.9656
     25 O3         -0.6047   -7.7921   -9.6800 O.2       1 <0>        -0.9670
     26 N4         -1.0422   -5.6578  -10.8464 N.pl3     1 <0>        -1.2507
     27 H1          5.1111   -4.9141    3.8086 H         1 <0>         0.0796
     28 H2          5.9052   -3.8292    2.6421 H         1 <0>         0.0763
     29 H3          4.9269   -3.1506    3.9653 H         1 <0>         0.0792
     30 H4          4.8547   -4.8548    0.7133 H         1 <0>         0.1410
     31 H5          2.8278   -4.9296   -0.7222 H         1 <0>         0.1407
     32 H6         -0.2746   -3.9643    3.1913 H         1 <0>         0.0804
     33 H7          0.4511   -2.3591    3.4459 H         1 <0>         0.0807
     34 H8         -0.3812   -2.7270    1.9162 H         1 <0>         0.0805
     35 H9          0.8318   -6.6969   -0.3960 H         1 <0>         0.1549
     36 H10         0.9360   -7.7233   -2.5840 H         1 <0>         0.1763
     37 H11         0.1640   -2.8727   -2.2175 H         1 <0>         0.1653
     38 H12        -1.4386   -5.7441   -5.3223 H         1 <0>         0.1288
     39 H13        -1.5359   -6.8572   -7.5126 H         1 <0>         0.1427
     40 H14         1.7107   -4.4608   -8.9003 H         1 <0>         0.1451
     41 H15         1.8206   -3.3250   -6.7222 H         1 <0>         0.1372
     42 H16        -1.4743   -4.8660  -10.4896 H         1 <0>         0.4171
     43 H17        -1.2227   -5.9404  -11.7566 H         1 <0>         0.4209
     44 H18         0.6637   -6.3417   -4.4988 H         1 <0>         0.4232
@<TRIPOS>BOND
     1    1    2 1
     2    1   27 1
     3    1   28 1
     4    1   29 1
     5    2    7 ar
     6    2    3 ar
     7    3    4 ar
     8    3   30 1
     9    4    5 ar
    10    4   31 1
    11    5    6 ar
    12    5    9 1
    13    6    7 ar
    14    6    8 1
    15    8   32 1
    16    8   33 1
    17    8   34 1
    18    9   10 1
    19   10   11 1
    20   10   15 2
    21   11   35 1
    22   11   12 2
    23   12   36 1
    24   12   13 1
    25   13   44 1
    26   13   14 1
    27   14   16 2
    28   14   15 1
    29   15   37 1
    30   16   17 1
    31   17   22 ar
    32   17   18 ar
    33   18   19 ar
    34   18   38 1
    35   19   20 ar
    36   19   39 1
    37   20   21 ar
    38   20   23 1
    39   21   22 ar
    40   21   40 1
    41   22   41 1
    42   23   24 2
    43   23   25 2
    44   23   26 1
    45   26   42 1
    46   26   43 1
@<TRIPOS>MOLECULE
CHEMBL585367__3
   44    46     0     0     0
SMALL
USER_CHARGES

@<TRIPOS>ATOM
      1 C1          2.5658   -4.4774    4.2672 C.3       1 <0>        -0.1037
      2 C2          1.6413   -4.3595    3.0830 C.ar      1 <0>         0.1090
      3 C3          2.0179   -4.8999    1.8673 C.ar      1 <0>        -0.1410
      4 C4          1.1627   -4.7876    0.7833 C.ar      1 <0>        -0.1379
      5 C5         -0.0506   -4.1302    0.9634 C.ar      1 <0>         0.0592
      6 C6         -0.3579   -3.6142    2.2139 C.ar      1 <0>         0.1266
      7 N1          0.4818   -3.7472    3.2215 N.ar      1 <0>        -0.4496
      8 C7         -1.6678   -2.8992    2.4242 C.3       1 <0>        -0.1013
      9 O1         -0.9215   -3.9951   -0.0710 O.3       1 <0>        -0.2451
     10 C8         -0.6221   -4.6125   -1.2395 C.2       1 <0>         0.1967
     11 C9         -0.6063   -6.0209   -1.3174 C.2       1 <0>        -0.2601
     12 C10        -0.3081   -6.6327   -2.4812 C.2       1 <0>         0.1702
     13 N2         -0.0184   -5.9087   -3.5980 N.pl3     1 <0>        -0.5808
     14 C11        -0.0236   -4.5360   -3.5632 C.2       1 <0>         0.4477
     15 C12        -0.3352   -3.8699   -2.3661 C.2       1 <0>        -0.2382
     16 N3          0.2611   -3.8401   -4.6590 N.2       1 <0>        -0.6076
     17 C13         0.3798   -2.4824   -4.5934 C.ar      1 <0>         0.2147
     18 C14        -0.4150   -1.6674   -5.4056 C.ar      1 <0>        -0.1575
     19 C15        -0.2892   -0.2962   -5.3334 C.ar      1 <0>         0.0049
     20 C16         0.6207    0.2739   -4.4601 C.ar      1 <0>        -0.7057
     21 C17         1.4112   -0.5260   -3.6534 C.ar      1 <0>         0.0050
     22 C18         1.2928   -1.8986   -3.7094 C.ar      1 <0>        -0.1933
     23 S1          0.7740    2.0272   -4.3754 S.o2      1 <0>         2.7023
     24 O2          2.0770    2.2974   -3.8771 O.2       1 <0>        -0.9668
     25 O3          0.3137    2.5357   -5.6199 O.2       1 <0>        -0.9661
     26 N4         -0.2922    2.5568   -3.2242 N.pl3     1 <0>        -1.2511
     27 H1          2.3479   -5.3983    4.8080 H         1 <0>         0.0798
     28 H2          3.5992   -4.4952    3.9209 H         1 <0>         0.0766
     29 H3          2.4191   -3.6239    4.9291 H         1 <0>         0.0795
     30 H4          2.9677   -5.4033    1.7640 H         1 <0>         0.1413
     31 H5          1.4311   -5.1999   -0.1781 H         1 <0>         0.1405
     32 H6         -2.4279   -3.6168    2.7329 H         1 <0>         0.0805
     33 H7         -1.5478   -2.1414    3.1984 H         1 <0>         0.0811
     34 H8         -1.9749   -2.4223    1.4935 H         1 <0>         0.0796
     35 H9         -0.8335   -6.6110   -0.4419 H         1 <0>         0.1554
     36 H10        -0.2984   -7.7116   -2.5286 H         1 <0>         0.1829
     37 H11        -0.3466   -2.7906   -2.3276 H         1 <0>         0.1590
     38 H12        -1.1253   -2.1108   -6.0878 H         1 <0>         0.1347
     39 H13        -0.9021    0.3346   -5.9603 H         1 <0>         0.1440
     40 H14         2.1195   -0.0738   -2.9750 H         1 <0>         0.1408
     41 H15         1.9069   -2.5214   -3.0759 H         1 <0>         0.1273
     42 H16        -0.8483    1.9200   -2.7486 H         1 <0>         0.4162
     43 H17        -0.3606    3.5038   -3.0255 H         1 <0>         0.4202
     44 H18         0.1941   -6.3674   -4.4259 H         1 <0>         0.4303
@<TRIPOS>BOND
     1    1    2 1
     2    1   27 1
     3    1   28 1
     4    1   29 1
     5    2    7 ar
     6    2    3 ar
     7    3    4 ar
     8    3   30 1
     9    4    5 ar
    10    4   31 1
    11    5    6 ar
    12    5    9 1
    13    6    7 ar
    14    6    8 1
    15    8   32 1
    16    8   33 1
    17    8   34 1
    18    9   10 1
    19   10   11 1
    20   10   15 2
    21   11   35 1
    22   11   12 2
    23   12   36 1
    24   12   13 1
    25   13   44 1
    26   13   14 1
    27   14   16 2
    28   14   15 1
    29   15   37 1
    30   16   17 1
    31   17   22 ar
    32   17   18 ar
    33   18   19 ar
    34   18   38 1
    35   19   20 ar
    36   19   39 1
    37   20   21 ar
    38   20   23 1
    39   21   22 ar
    40   21   40 1
    41   22   41 1
    42   23   24 2
    43   23   25 2
    44   23   26 1
    45   26   42 1
    46   26   43 1
@<TRIPOS>MOLECULE
CHEMBL500149
   47    49     0     0     0
SMALL
USER_CHARGES

@<TRIPOS>ATOM
      1 C1         -4.8982   -3.7131   -2.6440 C.3       1 <0>        -0.1139
      2 C2         -3.5696   -3.8233   -1.9415 C.ar      1 <0>        -0.1289
      3 C3         -2.4121   -3.4875   -2.6082 C.ar      1 <0>        -0.0358
      4 C4         -1.1775   -3.5894   -1.9567 C.ar      1 <0>        -0.2009
      5 C5         -1.1314   -4.0347   -0.6249 C.ar      1 <0>         0.1744
      6 C6         -2.3083   -4.3679    0.0284 C.ar      1 <0>        -0.2045
      7 C7         -3.5192   -4.2566   -0.6261 C.ar      1 <0>        -0.0116
      8 C8         -4.7942   -4.6144    0.0933 C.3       1 <0>        -0.1259
      9 O1          0.0579   -4.1386    0.0181 O.3       1 <0>        -0.2230
     10 C9          0.0636   -4.6760    1.2631 C.ar      1 <0>         0.1390
     11 C10        -0.0059   -3.8718    2.3874 C.ar      1 <0>        -0.1807
     12 C11         0.0014   -4.4508    3.6497 C.ar      1 <0>         0.1402
     13 N1          0.0734   -5.7510    3.8142 N.ar      1 <0>        -0.4674
     14 C12         0.1431   -6.5873    2.7722 C.ar      1 <0>         0.1535
     15 C13         0.1348   -6.0740    1.4522 C.ar      1 <0>        -0.1007
     16 C14         0.2030   -6.9539    0.3611 C.ar      1 <0>        -0.1673
     17 C15         0.2713   -8.2989    0.5814 C.ar      1 <0>         0.1294
     18 C16         0.2740   -8.8107    1.8874 C.ar      1 <0>         0.1461
     19 C17         0.2201   -7.9769    2.9665 C.ar      1 <0>        -0.1726
     20 O2          0.3427  -10.1539    2.0809 O.3       1 <0>        -0.2991
     21 C18         0.3418  -10.6154    3.4333 C.3       1 <0>         0.0207
     22 O3          0.3369   -9.1516   -0.4757 O.3       1 <0>        -0.2988
     23 C19         0.3298   -8.5690   -1.7805 C.3       1 <0>         0.0225
     24 C20         0.0608   -3.2339   -2.6603 C.2       1 <0>         0.3897
     25 O4          1.1285   -3.3238   -2.0918 O.2       1 <0>        -0.4404
     26 C21         0.0055   -2.7574   -4.0888 C.3       1 <0>        -0.1994
     27 H1         -5.3090   -2.7153   -2.4900 H         1 <0>         0.0725
     28 H2         -4.7607   -3.8887   -3.7110 H         1 <0>         0.0692
     29 H3         -5.5859   -4.4557   -2.2393 H         1 <0>         0.0705
     30 H4         -2.4571   -3.1465   -3.6319 H         1 <0>         0.1435
     31 H5         -2.2782   -4.7110    1.0520 H         1 <0>         0.1321
     32 H6         -5.0115   -5.6719   -0.0567 H         1 <0>         0.0798
     33 H7         -4.6786   -4.4147    1.1586 H         1 <0>         0.0711
     34 H8         -5.6146   -4.0153   -0.3018 H         1 <0>         0.0780
     35 H9         -0.0652   -2.7984    2.2835 H         1 <0>         0.1474
     36 H10        -0.0532   -3.8137    4.5200 H         1 <0>         0.1695
     37 H11         0.2011   -6.5686   -0.6478 H         1 <0>         0.1442
     38 H12         0.2233   -8.3845    3.9666 H         1 <0>         0.1552
     39 H13         1.2008  -10.1994    3.9597 H         1 <0>         0.0611
     40 H14        -0.5762  -10.2951    3.9259 H         1 <0>         0.0607
     41 H15         0.4002  -11.7038    3.4458 H         1 <0>         0.1066
     42 H16        -0.5896   -8.0003   -1.9196 H         1 <0>         0.0565
     43 H17         1.1875   -7.9046   -1.8864 H         1 <0>         0.0593
     44 H18         0.3862   -9.3576   -2.5309 H         1 <0>         0.1074
     45 H19        -0.1004   -1.6727   -4.1062 H         1 <0>         0.0976
     46 H20         0.9242   -3.0410   -4.6023 H         1 <0>         0.0888
     47 H21        -0.8473   -3.2137   -4.5914 H         1 <0>         0.0847
@<TRIPOS>BOND
     1    1    2 1
     2    1   27 1
     3    1   28 1
     4    1   29 1
     5    2    7 ar
     6    2    3 ar
     7    3    4 ar
     8    3   30 1
     9    4    5 ar
    10    4   24 1
    11    5    6 ar
    12    5    9 1
    13    6    7 ar
    14    6   31 1
    15    7    8 1
    16    8   32 1
    17    8   33 1
    18    8   34 1
    19    9   10 1
    20   10   15 ar
    21   10   11 ar
    22   11   12 ar
    23   11   35 1
    24   12   13 ar
    25   12   36 1
    26   13   14 ar
    27   14   19 ar
    28   14   15 ar
    29   15   16 ar
    30   16   17 ar
    31   16   37 1
    32   17   18 ar
    33   17   22 1
    34   18   19 ar
    35   18   20 1
    36   19   38 1
    37   20   21 1
    38   21   39 1
    39   21   40 1
    40   21   41 1
    41   22   23 1
    42   23   42 1
    43   23   43 1
    44   23   44 1
    45   24   25 2
    46   24   26 1
    47   26   45 1
    48   26   46 1
    49   26   47 1
@<TRIPOS>MOLECULE
CHEMBL567287
   57    61     0     0     0
SMALL
USER_CHARGES

@<TRIPOS>ATOM
      1 C1          0.2328    1.8152   -0.1786 C.ar      1 <0>        -0.0742
      2 C2          1.4684    2.4270   -0.3394 C.ar      1 <0>        -0.1604
      3 C3          2.6149    1.6550   -0.3210 C.ar      1 <0>         0.1028
      4 N1          2.5490    0.3496   -0.1536 N.ar      1 <0>        -0.4584
      5 C4          1.3882   -0.2737    0.0034 C.ar      1 <0>         0.1872
      6 C5          0.1928    0.4431   -0.0043 C.ar      1 <0>        -0.1376
      7 C6          1.3625   -1.7443    0.1881 C.2       1 <0>         0.1427
      8 C7          2.3539   -2.6590   -0.2499 C.2       1 <0>        -0.1849
      9 C8          1.9493   -3.9078    0.1176 C.2       1 <0>         0.0818
     10 N2          0.7665   -3.7885    0.7533 N.pl3     1 <0>        -0.4594
     11 H1          0.2460   -4.5182    1.1240 H         1 <0>         0.4486
     12 N3          0.4191   -2.4330    0.7924 N.2       1 <0>        -0.2665
     13 C9          3.6017   -2.3193   -0.9752 C.ar      1 <0>         0.0657
     14 C10         3.5730   -1.4961   -2.1068 C.ar      1 <0>        -0.1315
     15 C11         4.7540   -1.2013   -2.7555 C.ar      1 <0>         0.1090
     16 N4          5.9040   -1.6825   -2.3258 N.ar      1 <0>        -0.4798
     17 C12         5.9808   -2.4670   -1.2575 C.ar      1 <0>         0.1561
     18 C13         4.8361   -2.8075   -0.5439 C.ar      1 <0>        -0.1521
     19 C14         7.3002   -2.9812   -0.8176 C.ar      1 <0>        -0.0332
     20 C15         7.3892   -3.8104    0.2998 C.ar      1 <0>        -0.0856
     21 C16         8.6167   -4.2876    0.7066 C.ar      1 <0>        -0.1150
     22 C17         9.7653   -3.9428    0.0037 C.ar      1 <0>         0.1233
     23 C18         9.6791   -3.1159   -1.1102 C.ar      1 <0>        -0.1336
     24 C19         8.4531   -2.6410   -1.5242 C.ar      1 <0>        -0.0610
     25 N5         11.0088   -4.4278    0.4181 N.am      1 <0>        -0.6439
     26 C20        11.1032   -5.6511    0.9758 C.2       1 <0>         0.4990
     27 O1         10.1274   -6.3693    1.0313 O.2       1 <0>        -0.5099
     28 C21        12.4212   -6.1267    1.5306 C.3       1 <0>        -0.0250
     29 N6         12.2621   -7.4804    2.0783 N.4       1 <0>        -0.3819
     30 C22        12.0207   -8.4519    0.9809 C.3       1 <0>        -0.0087
     31 C23        12.4350   -9.8063    1.6089 C.3       1 <0>        -0.1440
     32 C24        13.6592   -9.4265    2.4733 C.3       1 <0>        -0.1447
     33 C25        13.5144   -7.9157    2.7340 C.3       1 <0>        -0.0081
     34 H2         -0.6766    2.3977   -0.1850 H         1 <0>         0.1411
     35 H3          1.5333    3.4961   -0.4779 H         1 <0>         0.1399
     36 H4          3.5777    2.1281   -0.4458 H         1 <0>         0.1601
     37 H5         -0.7514   -0.0653    0.1240 H         1 <0>         0.1405
     38 H6          2.4814   -4.8291   -0.0681 H         1 <0>         0.1858
     39 H7          2.6368   -1.0966   -2.4680 H         1 <0>         0.1274
     40 H8          4.7365   -0.5667   -3.6293 H         1 <0>         0.1580
     41 H9          4.9011   -3.4421    0.3276 H         1 <0>         0.1320
     42 H10         6.4971   -4.0783    0.8465 H         1 <0>         0.1340
     43 H11         8.6862   -4.9296    1.5723 H         1 <0>         0.1339
     44 H12        10.5729   -2.8491   -1.6546 H         1 <0>         0.1326
     45 H13         8.3861   -2.0022   -2.3924 H         1 <0>         0.1465
     46 H14        11.8040   -3.8840    0.3042 H         1 <0>         0.4200
     47 H15        13.1661   -6.1419    0.7349 H         1 <0>         0.1610
     48 H16        12.7477   -5.4510    2.3211 H         1 <0>         0.1624
     49 H17        10.9671   -8.4633    0.7021 H         1 <0>         0.1460
     50 H18        12.6455   -8.2207    0.1182 H         1 <0>         0.1308
     51 H19        11.6329  -10.2048    2.2301 H         1 <0>         0.0992
     52 H20        12.7160  -10.5205    0.8349 H         1 <0>         0.1176
     53 H21        13.6428   -9.9761    3.4145 H         1 <0>         0.1067
     54 H22        14.5827   -9.6302    1.9315 H         1 <0>         0.1053
     55 H23        14.3627   -7.3821    2.3056 H         1 <0>         0.1331
     56 H24        13.4569   -7.7277    3.8061 H         1 <0>         0.1353
     57 H25        11.4985   -7.5020    2.7375 H         1 <0>         0.4342
@<TRIPOS>BOND
     1    1    6 ar
     2    1    2 ar
     3    1   34 1
     4    2    3 ar
     5    2   35 1
     6    3    4 ar
     7    3   36 1
     8    4    5 ar
     9    5    6 ar
    10    5    7 1
    11    6   37 1
    12    7   12 2
    13    7    8 1
    14    8    9 2
    15    8   13 1
    16    9   10 1
    17    9   38 1
    18   10   11 1
    19   10   12 1
    20   13   18 ar
    21   13   14 ar
    22   14   15 ar
    23   14   39 1
    24   15   16 ar
    25   15   40 1
    26   16   17 ar
    27   17   18 ar
    28   17   19 1
    29   18   41 1
    30   19   24 ar
    31   19   20 ar
    32   20   21 ar
    33   20   42 1
    34   21   22 ar
    35   21   43 1
    36   22   23 ar
    37   22   25 1
    38   23   24 ar
    39   23   44 1
    40   24   45 1
    41   25   26 am
    42   25   46 1
    43   26   27 2
    44   26   28 1
    45   28   29 1
    46   28   47 1
    47   28   48 1
    48   29   33 1
    49   29   30 1
    50   29   57 1
    51   30   31 1
    52   30   49 1
    53   30   50 1
    54   31   32 1
    55   31   51 1
    56   31   52 1
    57   32   33 1
    58   32   53 1
    59   32   54 1
    60   33   55 1
    61   33   56 1
@<TRIPOS>MOLECULE
CHEMBL567287__1
   57    61     0     0     0
SMALL
USER_CHARGES

@<TRIPOS>ATOM
      1 C1          0.2338    1.8128   -0.1773 C.ar      1 <0>        -0.0673
      2 C2          1.4692    2.4255   -0.3389 C.ar      1 <0>        -0.1579
      3 C3          2.6170    1.6545   -0.3216 C.ar      1 <0>         0.1091
      4 N1          2.5533    0.3495   -0.1543 N.ar      1 <0>        -0.4520
      5 C4          1.3920   -0.2761    0.0038 C.ar      1 <0>         0.1705
      6 C5          0.1943    0.4411   -0.0033 C.ar      1 <0>        -0.1558
      7 C6          1.3678   -1.7413    0.1885 C.2       1 <0>         0.1509
      8 C7          2.3316   -2.6444   -0.2418 C.2       1 <0>        -0.1724
      9 C8          1.9047   -3.9268    0.1460 C.2       1 <0>         0.0690
     10 N2          0.7618   -3.8138    0.7685 N.2       1 <0>        -0.2686
     11 H1         -0.4032   -2.1033    1.2282 H         1 <0>         0.4446
     12 N3          0.3991   -2.4629    0.8182 N.pl3     1 <0>        -0.4587
     13 C9          3.5780   -2.3171   -0.9734 C.ar      1 <0>         0.0654
     14 C10         3.5505   -1.4983   -2.1087 C.ar      1 <0>        -0.1351
     15 C11         4.7309   -1.2154   -2.7639 C.ar      1 <0>         0.1088
     16 N4          5.8791   -1.7036   -2.3372 N.ar      1 <0>        -0.4798
     17 C12         5.9549   -2.4841   -1.2659 C.ar      1 <0>         0.1571
     18 C13         4.8110   -2.8125   -0.5452 C.ar      1 <0>        -0.1486
     19 C14         7.2724   -3.0060   -0.8297 C.ar      1 <0>        -0.0340
     20 C15         7.3604   -3.8311    0.2910 C.ar      1 <0>        -0.0848
     21 C16         8.5863   -4.3150    0.6946 C.ar      1 <0>        -0.1150
     22 C17         9.7343   -3.9811   -0.0144 C.ar      1 <0>         0.1237
     23 C18         9.6491   -3.1585   -1.1316 C.ar      1 <0>        -0.1341
     24 C19         8.4246   -2.6772   -1.5427 C.ar      1 <0>        -0.0610
     25 N5         10.9761   -4.4730    0.3968 N.am      1 <0>        -0.6441
     26 C20        11.0644   -5.6945    0.9594 C.2       1 <0>         0.4988
     27 O1         10.0839   -6.4056    1.0220 O.2       1 <0>        -0.5091
     28 C21        12.3814   -6.1768    1.5107 C.3       1 <0>        -0.0249
     29 N6         12.2153   -7.5271    2.0649 N.4       1 <0>        -0.3819
     30 C22        11.9626   -8.5015    0.9727 C.3       1 <0>        -0.0088
     31 C23        12.3701   -9.8561    1.6048 C.3       1 <0>        -0.1440
     32 C24        13.6005   -9.4811    2.4624 C.3       1 <0>        -0.1446
     33 C25        13.4672   -7.9683    2.7172 C.3       1 <0>        -0.0081
     34 H2         -0.6759    2.3949   -0.1829 H         1 <0>         0.1434
     35 H3          1.5331    3.4947   -0.4772 H         1 <0>         0.1430
     36 H4          3.5790    2.1289   -0.4475 H         1 <0>         0.1634
     37 H5         -0.7496   -0.0677    0.1256 H         1 <0>         0.1344
     38 H6          2.4330   -4.8503   -0.0400 H         1 <0>         0.1921
     39 H7          2.6159   -1.0931   -2.4675 H         1 <0>         0.1258
     40 H8          4.7144   -0.5845   -3.6403 H         1 <0>         0.1575
     41 H9          4.8754   -3.4435    0.3289 H         1 <0>         0.1341
     42 H10         6.4688   -4.0905    0.8424 H         1 <0>         0.1351
     43 H11         8.6550   -4.9538    1.5628 H         1 <0>         0.1343
     44 H12        10.5425   -2.8998   -1.6806 H         1 <0>         0.1325
     45 H13         8.3583   -2.0422   -2.4138 H         1 <0>         0.1462
     46 H14        11.7745   -3.9352    0.2773 H         1 <0>         0.4198
     47 H15        13.1228   -6.2006    0.7120 H         1 <0>         0.1608
     48 H16        12.7159   -5.5000    2.2969 H         1 <0>         0.1623
     49 H17        10.9077   -8.5069    0.6983 H         1 <0>         0.1462
     50 H18        12.5854   -8.2784    0.1064 H         1 <0>         0.1308
     51 H19        11.5679  -10.2464    2.2310 H         1 <0>         0.0994
     52 H20        12.6430  -10.5755    0.8327 H         1 <0>         0.1176
     53 H21        13.5843  -10.0265    3.4060 H         1 <0>         0.1067
     54 H22        14.5204   -9.6934    1.9176 H         1 <0>         0.1052
     55 H23        14.3175   -7.4423    2.2830 H         1 <0>         0.1330
     56 H24        13.4156   -7.7752    3.7887 H         1 <0>         0.1352
     57 H25        11.4543   -7.5405    2.7273 H         1 <0>         0.4343
@<TRIPOS>BOND
     1    1    6 ar
     2    1    2 ar
     3    1   34 1
     4    2    3 ar
     5    2   35 1
     6    3    4 ar
     7    3   36 1
     8    4    5 ar
     9    5    6 ar
    10    5    7 1
    11    6   37 1
    12    7    8 2
    13    7   12 1
    14    8    9 1
    15    8   13 1
    16    9   10 2
    17    9   38 1
    18   10   12 1
    19   11   12 1
    20   13   18 ar
    21   13   14 ar
    22   14   15 ar
    23   14   39 1
    24   15   16 ar
    25   15   40 1
    26   16   17 ar
    27   17   18 ar
    28   17   19 1
    29   18   41 1
    30   19   24 ar
    31   19   20 ar
    32   20   21 ar
    33   20   42 1
    34   21   22 ar
    35   21   43 1
    36   22   23 ar
    37   22   25 1
    38   23   24 ar
    39   23   44 1
    40   24   45 1
    41   25   26 am
    42   25   46 1
    43   26   27 2
    44   26   28 1
    45   28   29 1
    46   28   47 1
    47   28   48 1
    48   29   33 1
    49   29   30 1
    50   29   57 1
    51   30   31 1
    52   30   49 1
    53   30   50 1
    54   31   32 1
    55   31   51 1
    56   31   52 1
    57   32   33 1
    58   32   53 1
    59   32   54 1
    60   33   55 1
    61   33   56 1
@<TRIPOS>MOLECULE
CHEMBL1164971
   50    54     0     0     0
SMALL
USER_CHARGES

@<TRIPOS>ATOM
      1 C1          0.4850    1.4650   -0.0159 C.3       1 <0>        -0.1084
      2 C2          0.2390   -0.0218   -0.0103 C.ar      1 <0>         0.1408
      3 C3          0.0100   -0.6794   -1.2043 C.ar      1 <0>        -0.1839
      4 C4         -0.2157   -2.0489   -1.1951 C.ar      1 <0>        -0.0642
      5 C5         -0.2032   -2.7124    0.0191 C.ar      1 <0>        -0.1798
      6 C6          0.0343   -1.9866    1.1850 C.ar      1 <0>         0.2172
      7 N1          0.2507   -0.6782    1.1324 N.ar      1 <0>        -0.4747
      8 C7          0.0505   -2.6824    2.4936 C.2       1 <0>        -0.1860
      9 C8         -0.0199   -4.0296    2.6920 C.2       1 <0>         0.0865
     10 N2          0.0253   -4.2544    4.0200 N.pl3     1 <0>        -0.3605
     11 N3          0.1265   -3.0216    4.6753 N.2       1 <0>        -0.2726
     12 C9          0.1483   -2.0692    3.7689 C.2       1 <0>         0.1482
     13 C10         0.2525   -0.6140    4.0330 C.ar      1 <0>         0.0011
     14 C11        -0.5908    0.2804    3.3535 C.ar      1 <0>        -0.0224
     15 C12        -0.5154    1.6175    3.5767 C.ar      1 <0>        -0.1088
     16 C13         0.4166    2.1269    4.4999 C.ar      1 <0>         0.1394
     17 C14         1.2716    1.2315    5.1907 C.ar      1 <0>        -0.1074
     18 C15         1.1755   -0.1469    4.9507 C.ar      1 <0>        -0.0672
     19 C16         2.2013    1.7494    6.1128 C.ar      1 <0>        -0.0524
     20 C17         2.2374    3.1019    6.3014 C.ar      1 <0>        -0.1821
     21 C18         1.3687    3.9258    5.5896 C.ar      1 <0>         0.1325
     22 N4          0.5040    3.4401    4.7320 N.ar      1 <0>        -0.4774
     23 C19        -0.0233   -5.5673    4.6683 C.3       1 <0>         0.1752
     24 C20         1.1739   -5.7271    5.5695 C.ar      1 <0>        -0.1156
     25 C21         2.3461   -6.2676    5.0707 C.ar      1 <0>        -0.0682
     26 C22         3.4499   -6.4179    5.8910 C.ar      1 <0>        -0.1213
     27 C23         3.3888   -6.0289    7.2133 C.ar      1 <0>        -0.0580
     28 C24         2.2095   -5.4825    7.7230 C.ar      1 <0>        -0.0283
     29 C25         1.1005   -5.3292    6.8881 C.ar      1 <0>        -0.0339
     30 C26         2.1388   -5.0766    9.0944 C.1       1 <0>         0.2489
     31 N5          2.0827   -4.7546   10.1824 N.1       1 <0>        -0.4069
     32 H1          1.5527    1.6563   -0.1236 H         1 <0>         0.0773
     33 H2         -0.0513    1.9189   -0.8493 H         1 <0>         0.0749
     34 H3          0.1315    1.8953    0.9211 H         1 <0>         0.0800
     35 H4          0.0062   -0.1326   -2.1357 H         1 <0>         0.1329
     36 H5         -0.3974   -2.5846   -2.1151 H         1 <0>         0.1343
     37 H6         -0.3754   -3.7777    0.0627 H         1 <0>         0.1304
     38 H7         -0.0980   -4.7826    1.9217 H         1 <0>         0.1825
     39 H8         -1.3093   -0.1010    2.6431 H         1 <0>         0.1266
     40 H9         -1.1711    2.2909    3.0448 H         1 <0>         0.1343
     41 H10         1.8197   -0.8373    5.4750 H         1 <0>         0.1289
     42 H11         2.8671    1.0954    6.6563 H         1 <0>         0.1362
     43 H12         2.9384    3.5317    7.0016 H         1 <0>         0.1364
     44 H13         1.4083    4.9933    5.7487 H         1 <0>         0.1581
     45 H14        -0.9360   -5.6473    5.2589 H         1 <0>         0.1021
     46 H15        -0.0128   -6.3485    3.9082 H         1 <0>         0.1142
     47 H16         2.3994   -6.5737    4.0364 H         1 <0>         0.1312
     48 H17         4.3615   -6.8411    5.4955 H         1 <0>         0.1378
     49 H18         4.2511   -6.1472    7.8527 H         1 <0>         0.1360
     50 H19         0.1864   -4.9038    7.2750 H         1 <0>         0.1362
@<TRIPOS>BOND
     1    1    2 1
     2    1   32 1
     3    1   33 1
     4    1   34 1
     5    2    7 ar
     6    2    3 ar
     7    3    4 ar
     8    3   35 1
     9    4    5 ar
    10    4   36 1
    11    5    6 ar
    12    5   37 1
    13    6    7 ar
    14    6    8 1
    15    8   12 1
    16    8    9 2
    17    9   10 1
    18    9   38 1
    19   10   11 1
    20   10   23 1
    21   11   12 2
    22   12   13 1
    23   13   18 ar
    24   13   14 ar
    25   14   15 ar
    26   14   39 1
    27   15   16 ar
    28   15   40 1
    29   16   22 ar
    30   16   17 ar
    31   17   18 ar
    32   17   19 ar
    33   18   41 1
    34   19   20 ar
    35   19   42 1
    36   20   21 ar
    37   20   43 1
    38   21   22 ar
    39   21   44 1
    40   23   24 1
    41   23   45 1
    42   23   46 1
    43   24   29 ar
    44   24   25 ar
    45   25   26 ar
    46   25   47 1
    47   26   27 ar
    48   26   48 1
    49   27   28 ar
    50   27   49 1
    51   28   29 ar
    52   28   30 1
    53   29   50 1
    54   30   31 3
@<TRIPOS>MOLECULE
CHEMBL1165063
   53    57     0     0     0
SMALL
USER_CHARGES

@<TRIPOS>ATOM
      1 C1          0.4850    1.4650   -0.0159 C.3       1 <0>        -0.1082
      2 C2          0.2390   -0.0218   -0.0103 C.ar      1 <0>         0.1407
      3 C3          0.0100   -0.6794   -1.2043 C.ar      1 <0>        -0.1844
      4 C4         -0.2157   -2.0489   -1.1951 C.ar      1 <0>        -0.0642
      5 C5         -0.2032   -2.7124    0.0191 C.ar      1 <0>        -0.1802
      6 C6          0.0343   -1.9866    1.1850 C.ar      1 <0>         0.2182
      7 N1          0.2507   -0.6782    1.1324 N.ar      1 <0>        -0.4747
      8 C7          0.0505   -2.6824    2.4936 C.2       1 <0>        -0.1868
      9 C8         -0.0199   -4.0296    2.6920 C.2       1 <0>         0.0853
     10 N2          0.0253   -4.2544    4.0200 N.pl3     1 <0>        -0.3594
     11 N3          0.1265   -3.0216    4.6753 N.2       1 <0>        -0.2694
     12 C9          0.1483   -2.0692    3.7689 C.2       1 <0>         0.1462
     13 C10         0.2525   -0.6140    4.0330 C.ar      1 <0>         0.0022
     14 C11        -0.5908    0.2804    3.3535 C.ar      1 <0>        -0.0220
     15 C12        -0.5154    1.6175    3.5767 C.ar      1 <0>        -0.1090
     16 C13         0.4166    2.1269    4.4999 C.ar      1 <0>         0.1393
     17 C14         1.2716    1.2315    5.1907 C.ar      1 <0>        -0.1070
     18 C15         1.1755   -0.1469    4.9507 C.ar      1 <0>        -0.0671
     19 C16         2.2013    1.7494    6.1128 C.ar      1 <0>        -0.0521
     20 C17         2.2374    3.1019    6.3014 C.ar      1 <0>        -0.1824
     21 C18         1.3687    3.9258    5.5896 C.ar      1 <0>         0.1320
     22 N4          0.5040    3.4401    4.7320 N.ar      1 <0>        -0.4772
     23 C19        -0.0233   -5.5673    4.6683 C.3       1 <0>         0.1752
     24 C20         1.1739   -5.7271    5.5695 C.ar      1 <0>        -0.1216
     25 C21         2.3461   -6.2676    5.0708 C.ar      1 <0>        -0.0703
     26 C22         3.4499   -6.4173    5.8912 C.ar      1 <0>        -0.1292
     27 C23         3.3881   -6.0286    7.2137 C.ar      1 <0>        -0.0739
     28 C24         2.2089   -5.4829    7.7229 C.ar      1 <0>        -0.1415
     29 C25         1.1006   -5.3292    6.8882 C.ar      1 <0>        -0.0204
     30 C26         2.1354   -5.0645    9.1391 C.2       1 <0>         0.5627
     31 O1          1.1071   -4.5895    9.5799 O.2       1 <0>        -0.5338
     32 N5          3.2087   -5.2099    9.9412 N.am      1 <0>        -0.8509
     33 H1          1.5527    1.6563   -0.1236 H         1 <0>         0.0771
     34 H2         -0.0513    1.9189   -0.8493 H         1 <0>         0.0749
     35 H3          0.1315    1.8953    0.9211 H         1 <0>         0.0801
     36 H4          0.0062   -0.1326   -2.1357 H         1 <0>         0.1328
     37 H5         -0.3974   -2.5846   -2.1151 H         1 <0>         0.1341
     38 H6         -0.3754   -3.7777    0.0627 H         1 <0>         0.1301
     39 H7         -0.0980   -4.7826    1.9217 H         1 <0>         0.1820
     40 H8         -1.3093   -0.1010    2.6431 H         1 <0>         0.1266
     41 H9         -1.1711    2.2909    3.0448 H         1 <0>         0.1344
     42 H10         1.8197   -0.8373    5.4750 H         1 <0>         0.1283
     43 H11         2.8671    1.0954    6.6563 H         1 <0>         0.1359
     44 H12         2.9384    3.5317    7.0016 H         1 <0>         0.1363
     45 H13         1.4083    4.9933    5.7487 H         1 <0>         0.1580
     46 H14        -0.9360   -5.6473    5.2589 H         1 <0>         0.1020
     47 H15        -0.0128   -6.3485    3.9082 H         1 <0>         0.1126
     48 H16         2.3995   -6.5741    4.0366 H         1 <0>         0.1286
     49 H17         4.3618   -6.8398    5.4958 H         1 <0>         0.1334
     50 H18         4.2502   -6.1467    7.8533 H         1 <0>         0.1289
     51 H19         0.1865   -4.9035    7.2750 H         1 <0>         0.1402
     52 H20         4.0293   -5.5889    9.5894 H         1 <0>         0.4006
     53 H21         3.1605   -4.9354   10.8703 H         1 <0>         0.4073
@<TRIPOS>BOND
     1    1    2 1
     2    1   33 1
     3    1   34 1
     4    1   35 1
     5    2    7 ar
     6    2    3 ar
     7    3    4 ar
     8    3   36 1
     9    4    5 ar
    10    4   37 1
    11    5    6 ar
    12    5   38 1
    13    6    7 ar
    14    6    8 1
    15    8   12 1
    16    8    9 2
    17    9   10 1
    18    9   39 1
    19   10   11 1
    20   10   23 1
    21   11   12 2
    22   12   13 1
    23   13   18 ar
    24   13   14 ar
    25   14   15 ar
    26   14   40 1
    27   15   16 ar
    28   15   41 1
    29   16   22 ar
    30   16   17 ar
    31   17   18 ar
    32   17   19 ar
    33   18   42 1
    34   19   20 ar
    35   19   43 1
    36   20   21 ar
    37   20   44 1
    38   21   22 ar
    39   21   45 1
    40   23   24 1
    41   23   46 1
    42   23   47 1
    43   24   29 ar
    44   24   25 ar
    45   25   26 ar
    46   25   48 1
    47   26   27 ar
    48   26   49 1
    49   27   28 ar
    50   27   50 1
    51   28   29 ar
    52   28   30 1
    53   29   51 1
    54   30   31 2
    55   30   32 am
    56   32   52 1
    57   32   53 1
@<TRIPOS>MOLECULE
CHEMBL480583
   53    57     0     0     0
SMALL
USER_CHARGES

@<TRIPOS>ATOM
      1 C1         -0.0184    1.5028    0.0103 C.3       1 <0>        -0.1054
      2 C2          0.0021   -0.0041    0.0020 C.ar      1 <0>         0.1108
      3 C3          0.0056   -0.6807   -1.2062 C.ar      1 <0>         0.0462
      4 C4          0.0249   -2.0708   -1.2088 C.ar      1 <0>        -0.1050
      5 C5          0.0401   -2.7331    0.0052 C.ar      1 <0>        -0.1165
      6 C6          0.0355   -1.9878    1.1846 C.ar      1 <0>         0.2019
      7 N1          0.0218   -0.6602    1.1444 N.ar      1 <0>        -0.4461
      8 C7          0.0510   -2.6821    2.4912 C.2       1 <0>         0.1043
      9 C8          0.5157   -2.1641    3.6841 C.2       1 <0>         0.0344
     10 N2          0.3377   -3.1518    4.6322 N.pl3     1 <0>        -0.5855
     11 H1          0.5669   -3.0944    5.5730 H         1 <0>         0.4199
     12 C9         -0.2195   -4.2218    4.0004 C.2       1 <0>         0.5113
     13 N3         -0.3916   -3.9336    2.7335 N.2       1 <0>        -0.5157
     14 N4         -0.5559   -5.4209    4.6017 N.pl3     1 <0>        -0.5977
     15 C10        -0.3271   -5.6271    6.0386 C.3       1 <0>         0.1172
     16 C11        -1.6525   -6.0378    6.6920 C.3       1 <0>         0.1029
     17 N5         -2.2457   -7.1284    5.9055 N.pl3     1 <0>        -1.0003
     18 C12        -2.4745   -6.9221    4.4685 C.3       1 <0>         0.1003
     19 C13        -1.1543   -6.5095    3.8163 C.3       1 <0>         0.1302
     20 S1         -2.6485   -8.5642    6.6255 S.o2      1 <0>         2.6087
     21 O1         -2.5871   -9.5242    5.5796 O.2       1 <0>        -0.9496
     22 O2         -1.7845   -8.6612    7.7495 O.2       1 <0>        -0.9525
     23 C14        -4.3640   -8.3459    7.1733 C.3       1 <0>        -0.6726
     24 C15         1.0896   -0.8211    3.9020 C.2       1 <0>        -0.0354
     25 C16         0.2455    0.3141    3.9425 C.2       1 <0>        -0.0078
     26 C17         0.7868    1.5434    4.1442 C.2       1 <0>        -0.1107
     27 C18         2.1790    1.6724    4.3102 C.2       1 <0>         0.2883
     28 N6          2.9663    2.7229    4.5178 N.2       1 <0>        -0.5477
     29 C19         4.2271    2.3253    4.6082 C.2       1 <0>         0.2415
     30 N7          4.2901    1.0223    4.4635 N.2       1 <0>        -0.3458
     31 N8          2.9786    0.5657    4.2682 N.pl3     1 <0>        -0.2860
     32 C20         2.4471   -0.6691    4.0722 C.2       1 <0>         0.1317
     33 F1         -0.0101    0.0034   -2.3711 F         1 <0>        -0.1274
     34 H2          1.0042    1.8801    0.0026 H         1 <0>         0.0807
     35 H3         -0.5455    1.8639   -0.8728 H         1 <0>         0.0799
     36 H4         -0.5286    1.8543    0.9071 H         1 <0>         0.0847
     37 H5          0.0277   -2.6211   -2.1380 H         1 <0>         0.1504
     38 H6          0.0549   -3.8125    0.0398 H         1 <0>         0.1514
     39 H7          0.4112   -6.4161    6.1820 H         1 <0>         0.0828
     40 H8          0.0312   -4.7012    6.4886 H         1 <0>         0.0806
     41 H9         -1.4679   -6.3796    7.7104 H         1 <0>         0.1086
     42 H10        -2.3324   -5.1859    6.7070 H         1 <0>         0.0763
     43 H11        -2.8328   -7.8480    4.0185 H         1 <0>         0.1092
     44 H12        -3.2129   -6.1332    4.3252 H         1 <0>         0.0770
     45 H13        -1.3422   -6.1662    2.7990 H         1 <0>         0.1111
     46 H14        -0.4762   -7.3627    3.7978 H         1 <0>         0.0748
     47 H15        -4.9968   -8.1358    6.3110 H         1 <0>         0.1283
     48 H16        -4.7079   -9.2571    7.6629 H         1 <0>         0.1297
     49 H17        -4.4182   -7.5137    7.8752 H         1 <0>         0.1271
     50 H18        -0.8211    0.2037    3.8137 H         1 <0>         0.1508
     51 H19         0.1529    2.4172    4.1768 H         1 <0>         0.1597
     52 H20         5.0738    2.9745    4.7752 H         1 <0>         0.2267
     53 H21         3.0927   -1.5345    4.0458 H         1 <0>         0.1682
@<TRIPOS>BOND
     1    1    2 1
     2    1   34 1
     3    1   35 1
     4    1   36 1
     5    2    7 ar
     6    2    3 ar
     7    3    4 ar
     8    3   33 1
     9    4    5 ar
    10    4   37 1
    11    5    6 ar
    12    5   38 1
    13    6    7 ar
    14    6    8 1
    15    8   13 1
    16    8    9 2
    17    9   10 1
    18    9   24 1
    19   10   11 1
    20   10   12 1
    21   12   13 2
    22   12   14 1
    23   14   19 1
    24   14   15 1
    25   15   16 1
    26   15   39 1
    27   15   40 1
    28   16   17 1
    29   16   41 1
    30   16   42 1
    31   17   18 1
    32   17   20 1
    33   18   19 1
    34   18   43 1
    35   18   44 1
    36   19   45 1
    37   19   46 1
    38   20   21 2
    39   20   22 2
    40   20   23 1
    41   23   47 1
    42   23   48 1
    43   23   49 1
    44   24   32 2
    45   24   25 1
    46   25   26 2
    47   25   50 1
    48   26   27 1
    49   26   51 1
    50   27   31 1
    51   27   28 2
    52   28   29 1
    53   29   30 2
    54   29   52 1
    55   30   31 1
    56   31   32 1
    57   32   53 1
@<TRIPOS>MOLECULE
CHEMBL480583__1
   53    57     0     0     0
SMALL
USER_CHARGES

@<TRIPOS>ATOM
      1 C1         -0.1717    1.6480    0.2227 C.3       1 <0>        -0.1083
      2 C2         -0.2331    0.1438    0.1561 C.ar      1 <0>         0.1235
      3 C3         -0.4064   -0.4791   -1.0683 C.ar      1 <0>         0.0429
      4 C4         -0.4622   -1.8676   -1.1262 C.ar      1 <0>        -0.0941
      5 C5         -0.3418   -2.5830    0.0502 C.ar      1 <0>        -0.1504
      6 C6         -0.1689   -1.8901    1.2517 C.ar      1 <0>         0.2060
      7 N1         -0.1158   -0.5611    1.2632 N.ar      1 <0>        -0.4402
      8 C7         -0.0393   -2.6380    2.5149 C.2       1 <0>         0.0049
      9 C8          0.6030   -2.2187    3.6641 C.2       1 <0>         0.1371
     10 N2          0.4865   -3.2000    4.5787 N.2       1 <0>        -0.5204
     11 H1         -1.0492   -4.4607    2.1827 H         1 <0>         0.4195
     12 C9         -0.1886   -4.2019    4.0671 C.2       1 <0>         0.5191
     13 N3         -0.5421   -3.8985    2.7890 N.pl3     1 <0>        -0.5852
     14 N4         -0.4964   -5.3774    4.7243 N.pl3     1 <0>        -0.5954
     15 C10        -1.2556   -6.4371    4.0457 C.3       1 <0>         0.1160
     16 C11        -0.4492   -7.7398    4.1165 C.3       1 <0>         0.1031
     17 N5         -0.0229   -7.9532    5.5067 N.pl3     1 <0>        -1.0006
     18 C12         0.7363   -6.8935    6.1853 C.3       1 <0>         0.1005
     19 C13        -0.0652   -5.5931    6.1126 C.3       1 <0>         0.1286
     20 S1         -0.3918   -9.3623    6.2945 S.o2      1 <0>         2.6086
     21 O1         -0.4092   -9.0138    7.6720 O.2       1 <0>        -0.9490
     22 O2         -1.5666   -9.8395    5.6531 O.2       1 <0>        -0.9525
     23 C14         1.0029  -10.4692    5.9477 C.3       1 <0>        -0.6724
     24 C15         1.2960   -0.9230    3.8553 C.2       1 <0>        -0.0213
     25 C16         2.3882   -0.5761    3.0282 C.2       1 <0>        -0.0276
     26 C17         3.0158    0.6153    3.2126 C.2       1 <0>        -0.1074
     27 C18         2.5673    1.4847    4.2250 C.2       1 <0>         0.2854
     28 N6          2.9740    2.6836    4.6283 N.2       1 <0>        -0.5491
     29 C19         2.2178    3.0963    5.6352 C.2       1 <0>         0.2378
     30 N7          1.3117    2.1868    5.9080 N.2       1 <0>        -0.3431
     31 N8          1.5092    1.1266    5.0117 N.pl3     1 <0>        -0.2828
     32 C20         0.8768   -0.0611    4.8264 C.2       1 <0>         0.1448
     33 F1         -0.5207    0.2554   -2.1964 F         1 <0>        -0.1251
     34 H2          0.8618    1.9749    0.1080 H         1 <0>         0.0870
     35 H3         -0.7779    2.0722   -0.5777 H         1 <0>         0.0813
     36 H4         -0.5545    1.9850    1.1861 H         1 <0>         0.0832
     37 H5         -0.5971   -2.3755   -2.0697 H         1 <0>         0.1512
     38 H6         -0.3810   -3.6622    0.0412 H         1 <0>         0.1387
     39 H7         -2.2163   -6.5741    4.5421 H         1 <0>         0.0839
     40 H8         -1.4156   -6.1622    3.0031 H         1 <0>         0.0807
     41 H9         -1.0721   -8.5737    3.7928 H         1 <0>         0.1091
     42 H10         0.4271   -7.6631    3.4728 H         1 <0>         0.0764
     43 H11         0.8963   -7.1685    7.2278 H         1 <0>         0.1099
     44 H12         1.6970   -6.7565    5.6889 H         1 <0>         0.0775
     45 H13         0.5606   -4.7609    6.4348 H         1 <0>         0.1121
     46 H14        -0.9392   -5.6687    6.7596 H         1 <0>         0.0760
     47 H15         1.9229  -10.0243    6.3268 H         1 <0>         0.1284
     48 H16         0.8352  -11.4290    6.4363 H         1 <0>         0.1298
     49 H17         1.0886  -10.6195    4.8715 H         1 <0>         0.1271
     50 H18         2.7219   -1.2529    2.2556 H         1 <0>         0.1421
     51 H19         3.8519    0.8926    2.5878 H         1 <0>         0.1574
     52 H20         2.3303    4.0375    6.1528 H         1 <0>         0.2255
     53 H21         0.0391   -0.3266    5.4542 H         1 <0>         0.1698
@<TRIPOS>BOND
     1    1    2 1
     2    1   34 1
     3    1   35 1
     4    1   36 1
     5    2    7 ar
     6    2    3 ar
     7    3    4 ar
     8    3   33 1
     9    4    5 ar
    10    4   37 1
    11    5    6 ar
    12    5   38 1
    13    6    7 ar
    14    6    8 1
    15    8    9 2
    16    8   13 1
    17    9   10 1
    18    9   24 1
    19   10   12 2
    20   11   13 1
    21   12   14 1
    22   12   13 1
    23   14   19 1
    24   14   15 1
    25   15   16 1
    26   15   39 1
    27   15   40 1
    28   16   17 1
    29   16   41 1
    30   16   42 1
    31   17   18 1
    32   17   20 1
    33   18   19 1
    34   18   43 1
    35   18   44 1
    36   19   45 1
    37   19   46 1
    38   20   21 2
    39   20   22 2
    40   20   23 1
    41   23   47 1
    42   23   48 1
    43   23   49 1
    44   24   32 2
    45   24   25 1
    46   25   26 2
    47   25   50 1
    48   26   27 1
    49   26   51 1
    50   27   31 1
    51   27   28 2
    52   28   29 1
    53   29   30 2
    54   29   52 1
    55   30   31 1
    56   31   32 1
    57   32   53 1
@<TRIPOS>MOLECULE
CHEMBL480582
   52    56     0     0     0
SMALL
USER_CHARGES

@<TRIPOS>ATOM
      1 C1          1.7201    0.6124   -0.3464 C.3       1 <0>        -0.1057
      2 C2          1.5938   -0.8850   -0.2327 C.ar      1 <0>         0.1112
      3 C3          1.6822   -1.6666   -1.3724 C.ar      1 <0>         0.0463
      4 C4          1.5655   -3.0475   -1.2625 C.ar      1 <0>        -0.1050
      5 C5          1.3636   -3.5954   -0.0087 C.ar      1 <0>        -0.1167
      6 C6          1.2844   -2.7481    1.0969 C.ar      1 <0>         0.2020
      7 N1          1.4060   -1.4336    0.9504 N.ar      1 <0>        -0.4460
      8 C7          1.0683   -3.3191    2.4447 C.2       1 <0>         0.1038
      9 C8          1.4284   -2.7369    3.6441 C.2       1 <0>         0.0362
     10 N2          1.0373   -3.6150    4.6353 N.pl3     1 <0>        -0.5850
     11 H1          1.1514   -3.4922    5.5907 H         1 <0>         0.4202
     12 C9          0.4614   -4.6856    4.0214 C.2       1 <0>         0.5104
     13 N3          0.4783   -4.5002    2.7242 N.2       1 <0>        -0.5154
     14 N4         -0.0634   -5.7912    4.6655 N.pl3     1 <0>        -0.6000
     15 C10        -0.0375   -5.8847    6.1320 C.3       1 <0>         0.1160
     16 C11        -1.4681   -6.1175    6.6335 C.3       1 <0>         0.0959
     17 N5         -2.0621   -7.2196    5.8638 N.am      1 <0>        -0.6171
     18 C12        -2.0879   -7.1260    4.3974 C.3       1 <0>         0.0890
     19 C13        -0.6624   -6.8907    3.8961 C.3       1 <0>         0.1270
     20 C14        -2.5736   -8.2970    6.4915 C.2       1 <0>         0.5150
     21 O1         -2.4625   -8.4076    7.6942 O.2       1 <0>        -0.5421
     22 C15        -3.2834   -9.3643    5.6990 C.3       1 <0>        -0.1763
     23 C16         2.0993   -1.4346    3.8296 C.2       1 <0>        -0.0361
     24 C17         1.3720   -0.2315    3.6675 C.2       1 <0>        -0.0079
     25 C18         2.0016    0.9595    3.8416 C.2       1 <0>        -0.1103
     26 C19         3.3679    0.9816    4.1807 C.2       1 <0>         0.2884
     27 N6          4.2221    1.9743    4.4075 N.2       1 <0>        -0.5474
     28 C20         5.4166    1.4786    4.6961 C.2       1 <0>         0.2416
     29 N7          5.3693    0.1673    4.6645 N.2       1 <0>        -0.3459
     30 N8          4.0543   -0.1896    4.3331 N.pl3     1 <0>        -0.2860
     31 C21         3.4331   -1.3862    4.1664 C.2       1 <0>         0.1319
     32 F1          1.8796   -1.0927   -2.5794 F         1 <0>        -0.1272
     33 H2          2.7676    0.8972   -0.2478 H         1 <0>         0.0808
     34 H3          1.3455    0.9359   -1.3176 H         1 <0>         0.0800
     35 H4          1.1386    1.0872    0.4439 H         1 <0>         0.0849
     36 H5          1.6307   -3.6784   -2.1366 H         1 <0>         0.1505
     37 H6          1.2683   -4.6643    0.1128 H         1 <0>         0.1511
     38 H7          0.5963   -6.7184    6.4342 H         1 <0>         0.0797
     39 H8          0.3505   -4.9563    6.5510 H         1 <0>         0.0803
     40 H9         -1.4468   -6.3798    7.6912 H         1 <0>         0.1072
     41 H10        -2.0577   -5.2119    6.4904 H         1 <0>         0.0737
     42 H11        -2.4760   -8.0544    3.9784 H         1 <0>         0.1036
     43 H12        -2.7217   -6.2923    4.0951 H         1 <0>         0.0778
     44 H13        -0.6869   -6.6265    2.8389 H         1 <0>         0.1120
     45 H14        -0.0741   -7.7977    4.0355 H         1 <0>         0.0720
     46 H15        -2.5524  -10.0680    5.3010 H         1 <0>         0.0955
     47 H16        -3.9820   -9.8937    6.3469 H         1 <0>         0.0954
     48 H17        -3.8293   -8.9031    4.8760 H         1 <0>         0.0847
     49 H18         0.3243   -0.2601    3.4070 H         1 <0>         0.1510
     50 H19         1.4572    1.8843    3.7203 H         1 <0>         0.1600
     51 H20         6.2953    2.0644    4.9224 H         1 <0>         0.2268
     52 H21         3.9891   -2.3032    4.2946 H         1 <0>         0.1681
@<TRIPOS>BOND
     1    1    2 1
     2    1   33 1
     3    1   34 1
     4    1   35 1
     5    2    7 ar
     6    2    3 ar
     7    3    4 ar
     8    3   32 1
     9    4    5 ar
    10    4   36 1
    11    5    6 ar
    12    5   37 1
    13    6    7 ar
    14    6    8 1
    15    8   13 1
    16    8    9 2
    17    9   10 1
    18    9   23 1
    19   10   11 1
    20   10   12 1
    21   12   13 2
    22   12   14 1
    23   14   19 1
    24   14   15 1
    25   15   16 1
    26   15   38 1
    27   15   39 1
    28   16   17 1
    29   16   40 1
    30   16   41 1
    31   17   18 1
    32   17   20 am
    33   18   19 1
    34   18   42 1
    35   18   43 1
    36   19   44 1
    37   19   45 1
    38   20   21 2
    39   20   22 1
    40   22   46 1
    41   22   47 1
    42   22   48 1
    43   23   31 2
    44   23   24 1
    45   24   25 2
    46   24   49 1
    47   25   26 1
    48   25   50 1
    49   26   30 1
    50   26   27 2
    51   27   28 1
    52   28   29 2
    53   28   51 1
    54   29   30 1
    55   30   31 1
    56   31   52 1
@<TRIPOS>MOLECULE
CHEMBL480582__1
   53    57     0     0     0
SMALL
USER_CHARGES

@<TRIPOS>ATOM
      1 C1         -1.7501    1.5780    0.2968 C.3       1 <0>        -0.1140
      2 C2         -1.4640    0.0991    0.2505 C.ar      1 <0>         0.1264
      3 C3         -1.3124   -0.5294   -0.9741 C.ar      1 <0>         0.0806
      4 C4         -1.0481   -1.8938   -1.0118 C.ar      1 <0>        -0.0934
      5 C5         -0.9453   -2.5797    0.1848 C.ar      1 <0>        -0.1285
      6 C6         -1.1093   -1.8829    1.3823 C.ar      1 <0>         0.1545
      7 N1         -1.3560   -0.5777    1.3758 N.ar      1 <0>        -0.4271
      8 C7         -1.0027   -2.6029    2.6705 C.2       1 <0>         0.1108
      9 C8         -0.6651   -2.0477    3.8892 C.2       1 <0>         0.1539
     10 N2         -0.6886   -3.0797    4.8062 N.pl3     1 <0>        -0.5483
     11 H1         -0.4956   -3.0114    5.7543 H         1 <0>         0.4600
     12 C9         -1.0332   -4.2112    4.1313 C.cat     1 <0>         0.6068
     13 N3         -1.2233   -3.9195    2.8678 N.pl3     1 <0>        -0.5156
     14 N4         -1.1670   -5.4684    4.6917 N.pl3     1 <0>        -0.5745
     15 C10        -1.4314   -6.6404    3.8453 C.3       1 <0>         0.0992
     16 C11        -0.3500   -7.6939    4.1152 C.3       1 <0>         0.0943
     17 N5         -0.2299   -7.8820    5.5678 N.am      1 <0>        -0.6262
     18 C12         0.0345   -6.7100    6.4143 C.3       1 <0>         0.0896
     19 C13        -1.0413   -5.6573    6.1437 C.3       1 <0>         0.0987
     20 C14        -0.3603   -9.1072    6.1140 C.2       1 <0>         0.5185
     21 O1         -0.6715  -10.0510    5.4188 O.2       1 <0>        -0.5224
     22 C15        -0.1193   -9.3045    7.5885 C.3       1 <0>        -0.1792
     23 C16        -0.3425   -0.6320    4.1579 C.2       1 <0>        -0.0926
     24 C17        -1.3742    0.3354    4.2032 C.2       1 <0>        -0.0141
     25 C18        -1.0632    1.6341    4.4519 C.2       1 <0>        -0.0934
     26 C19         0.2801    2.0005    4.6611 C.2       1 <0>         0.2943
     27 N6          0.8646    3.1661    4.9181 N.2       1 <0>        -0.5320
     28 C20         2.1731    2.9936    5.0345 C.2       1 <0>         0.2571
     29 N7          2.4684    1.7269    4.8582 N.2       1 <0>        -0.3339
     30 N8          1.2631    1.0532    4.6137 N.pl3     1 <0>        -0.2947
     31 C21         0.9625   -0.2492    4.3709 C.2       1 <0>         0.1707
     32 F1         -1.4208    0.1763   -2.1210 F         1 <0>        -0.1101
     33 H2         -0.8101    2.1290    0.3282 H         1 <0>         0.0905
     34 H3         -2.3115    1.8674   -0.5915 H         1 <0>         0.0893
     35 H4         -2.3354    1.8071    1.1873 H         1 <0>         0.0918
     36 H5         -0.9262   -2.4067   -1.9544 H         1 <0>         0.1637
     37 H6         -0.7411   -3.6402    0.1920 H         1 <0>         0.1451
     38 H7         -2.4115   -7.0521    4.0863 H         1 <0>         0.1103
     39 H8         -1.4029   -6.3475    2.7957 H         1 <0>         0.0956
     40 H9         -0.6325   -8.6365    3.6464 H         1 <0>         0.1239
     41 H10         0.6027   -7.3523    3.7106 H         1 <0>         0.0820
     42 H11         0.0060   -7.0029    7.4638 H         1 <0>         0.1210
     43 H12         1.0146   -6.2983    6.1733 H         1 <0>         0.0846
     44 H13        -0.7552   -4.7154    6.6118 H         1 <0>         0.0980
     45 H14        -1.9930   -5.9974    6.5521 H         1 <0>         0.1100
     46 H15        -1.0302   -9.0714    8.1398 H         1 <0>         0.0995
     47 H16         0.1633  -10.3405    7.7750 H         1 <0>         0.1027
     48 H17         0.6833   -8.6441    7.9170 H         1 <0>         0.0860
     49 H18        -2.4013    0.0434    4.0410 H         1 <0>         0.1557
     50 H19        -1.8420    2.3815    4.4886 H         1 <0>         0.1686
     51 H20         2.8879    3.7761    5.2424 H         1 <0>         0.2348
     52 H21         1.7511   -0.9866    4.3408 H         1 <0>         0.1740
     53 H22        -1.4802   -4.5531    2.1798 H         1 <0>         0.4576
@<TRIPOS>BOND
     1    1    2 1
     2    1   33 1
     3    1   34 1
     4    1   35 1
     5    2    7 ar
     6    2    3 ar
     7    3    4 ar
     8    3   32 1
     9    4    5 ar
    10    4   36 1
    11    5    6 ar
    12    5   37 1
    13    6    7 ar
    14    6    8 1
    15    8   13 1
    16    8    9 2
    17    9   10 1
    18    9   23 1
    19   10   11 1
    20   10   12 1
    21   12   13 2
    22   12   14 1
    23   13   53 1
    24   14   19 1
    25   14   15 1
    26   15   16 1
    27   15   38 1
    28   15   39 1
    29   16   17 1
    30   16   40 1
    31   16   41 1
    32   17   18 1
    33   17   20 am
    34   18   19 1
    35   18   42 1
    36   18   43 1
    37   19   44 1
    38   19   45 1
    39   20   21 2
    40   20   22 1
    41   22   46 1
    42   22   47 1
    43   22   48 1
    44   23   31 2
    45   23   24 1
    46   24   25 2
    47   24   49 1
    48   25   26 1
    49   25   50 1
    50   26   30 1
    51   26   27 2
    52   27   28 1
    53   28   29 2
    54   28   51 1
    55   29   30 1
    56   30   31 1
    57   31   52 1
@<TRIPOS>MOLECULE
CHEMBL480582__2
   52    56     0     0     0
SMALL
USER_CHARGES

@<TRIPOS>ATOM
      1 C1          0.0016    1.4287   -0.2769 C.3       1 <0>        -0.1084
      2 C2         -0.0478   -0.0770   -0.2399 C.ar      1 <0>         0.1232
      3 C3         -0.1276   -0.7870   -1.4259 C.ar      1 <0>         0.0437
      4 C4         -0.1726   -2.1766   -1.3882 C.ar      1 <0>        -0.0941
      5 C5         -0.1358   -2.8053   -0.1579 C.ar      1 <0>        -0.1498
      6 C6         -0.0550   -2.0271    1.0003 C.ar      1 <0>         0.2045
      7 N1         -0.0091   -0.7002    0.9204 N.ar      1 <0>        -0.4399
      8 C7         -0.0154   -2.6820    2.3199 C.2       1 <0>         0.0065
      9 C8          0.5424   -2.1776    3.4790 C.2       1 <0>         0.1369
     10 N2          0.3619   -3.0917    4.4510 N.2       1 <0>        -0.5208
     11 H1         -0.9965   -4.5302    2.0481 H         1 <0>         0.4198
     12 C9         -0.2735   -4.1319    3.9656 C.2       1 <0>         0.5182
     13 N3         -0.5349   -3.9228    2.6472 N.pl3     1 <0>        -0.5844
     14 N4         -0.6261   -5.2594    4.6819 N.pl3     1 <0>        -0.5979
     15 C10        -1.3334   -6.3698    4.0285 C.3       1 <0>         0.1149
     16 C11        -0.5325   -7.6589    4.2500 C.3       1 <0>         0.0964
     17 N5         -0.2066   -7.7697    5.6788 N.am      1 <0>        -0.6170
     18 C12         0.5006   -6.6593    6.3321 C.3       1 <0>         0.0876
     19 C13        -0.2953   -5.3726    6.1093 C.3       1 <0>         0.1253
     20 C14        -0.5506   -8.8696    6.3775 C.2       1 <0>         0.5151
     21 O1         -1.0580   -9.8141    5.8105 O.2       1 <0>        -0.5419
     22 C15        -0.3045   -8.9261    7.8632 C.3       1 <0>        -0.1774
     23 C16         1.2182   -0.8671    3.6258 C.2       1 <0>        -0.0220
     24 C17         2.2991   -0.5299    2.7799 C.2       1 <0>        -0.0248
     25 C18         2.9110    0.6752    2.9235 C.2       1 <0>        -0.1076
     26 C19         2.4578    1.5682    3.9130 C.2       1 <0>         0.2857
     27 N6          2.8504    2.7843    4.2770 N.2       1 <0>        -0.5488
     28 C20         2.0960    3.2165    5.2770 C.2       1 <0>         0.2379
     29 N7          1.2051    2.3029    5.5842 N.2       1 <0>        -0.3435
     30 N8          1.4109    1.2191    4.7185 N.pl3     1 <0>        -0.2833
     31 C21         0.7941    0.0177    4.5739 C.2       1 <0>         0.1436
     32 F1         -0.1619   -0.1358   -2.6091 F         1 <0>        -0.1248
     33 H2          1.0392    1.7568   -0.3388 H         1 <0>         0.0874
     34 H3         -0.5460    1.7889   -1.1478 H         1 <0>         0.0813
     35 H4         -0.4527    1.8295    0.6293 H         1 <0>         0.0835
     36 H5         -0.2353   -2.7517   -2.3002 H         1 <0>         0.1515
     37 H6         -0.1693   -3.8828   -0.0924 H         1 <0>         0.1388
     38 H7         -2.3270   -6.4771    4.4636 H         1 <0>         0.0806
     39 H8         -1.4186   -6.1710    2.9602 H         1 <0>         0.0808
     40 H9         -1.1295   -8.5177    3.9433 H         1 <0>         0.1074
     41 H10         0.3876   -7.6227    3.6667 H         1 <0>         0.0735
     42 H11         0.5859   -6.8581    7.4004 H         1 <0>         0.1057
     43 H12         1.4942   -6.5520    5.8970 H         1 <0>         0.0786
     44 H13         0.3048   -4.5155    6.4148 H         1 <0>         0.1128
     45 H14        -1.2133   -5.4073    6.6960 H         1 <0>         0.0735
     46 H15        -1.1357   -8.4542    8.3873 H         1 <0>         0.0965
     47 H16        -0.2199   -9.9661    8.1782 H         1 <0>         0.0953
     48 H17         0.6198   -8.3987    8.0987 H         1 <0>         0.0854
     49 H18         2.6365   -1.2248    2.0253 H         1 <0>         0.1412
     50 H19         3.7383    0.9453    2.2840 H         1 <0>         0.1575
     51 H20         2.1990    4.1742    5.7654 H         1 <0>         0.2256
     52 H21        -0.0349   -0.2406    5.2161 H         1 <0>         0.1704
@<TRIPOS>BOND
     1    1    2 1
     2    1   33 1
     3    1   34 1
     4    1   35 1
     5    2    7 ar
     6    2    3 ar
     7    3    4 ar
     8    3   32 1
     9    4    5 ar
    10    4   36 1
    11    5    6 ar
    12    5   37 1
    13    6    7 ar
    14    6    8 1
    15    8    9 2
    16    8   13 1
    17    9   10 1
    18    9   23 1
    19   10   12 2
    20   11   13 1
    21   12   14 1
    22   12   13 1
    23   14   19 1
    24   14   15 1
    25   15   16 1
    26   15   38 1
    27   15   39 1
    28   16   17 1
    29   16   40 1
    30   16   41 1
    31   17   18 1
    32   17   20 am
    33   18   19 1
    34   18   42 1
    35   18   43 1
    36   19   44 1
    37   19   45 1
    38   20   21 2
    39   20   22 1
    40   22   46 1
    41   22   47 1
    42   22   48 1
    43   23   31 2
    44   23   24 1
    45   24   25 2
    46   24   49 1
    47   25   26 1
    48   25   50 1
    49   26   30 1
    50   26   27 2
    51   27   28 1
    52   28   29 2
    53   28   51 1
    54   29   30 1
    55   30   31 1
    56   31   52 1
@<TRIPOS>MOLECULE
CHEMBL519948
   36    39     0     0     0
SMALL
USER_CHARGES

@<TRIPOS>ATOM
      1 C1         -0.4083    1.7401    0.3913 C.3       1 <0>        -0.1020
      2 C2         -0.4525    0.2378    0.2812 C.ar      1 <0>         0.1337
      3 C3         -0.6809   -0.3492   -0.9496 C.ar      1 <0>        -0.1647
      4 C4         -0.7210   -1.7334   -1.0477 C.ar      1 <0>        -0.0751
      5 C5         -0.5294   -2.4830    0.0991 C.ar      1 <0>        -0.1390
      6 C6         -0.3036   -1.8253    1.3086 C.ar      1 <0>         0.1871
      7 N1         -0.2676   -0.4983    1.3582 N.ar      1 <0>        -0.4615
      8 C7         -0.0972   -2.6119    2.5446 C.2       1 <0>         0.1646
      9 C8          0.6414   -2.0900    3.6033 C.2       1 <0>        -0.1546
     10 S1          0.5485   -3.4433    4.7684 S.3       1 <0>         0.0234
     11 C9         -0.4373   -4.5421    3.7610 C.2       1 <0>         0.3842
     12 N2         -0.6152   -3.8224    2.6679 N.2       1 <0>        -0.5649
     13 N3         -0.8980   -5.8132    4.0522 N.pl3     1 <0>        -0.7912
     14 C10         1.3139   -0.7841    3.7286 C.ar      1 <0>         0.0477
     15 C11         1.1141   -0.0027    4.8831 C.ar      1 <0>        -0.0799
     16 C12         1.7222    1.2018    5.0206 C.ar      1 <0>        -0.0811
     17 C13         2.5662    1.6868    4.0032 C.ar      1 <0>         0.0818
     18 C14         2.7763    0.9089    2.8349 C.ar      1 <0>         0.0857
     19 C15         2.1431   -0.3365    2.7118 C.ar      1 <0>        -0.0353
     20 N4          3.5796    1.3710    1.8690 N.ar      1 <0>        -0.4234
     21 C16         4.1649    2.5387    2.0120 C.ar      1 <0>         0.0743
     22 C17         3.9582    3.3029    3.1612 C.ar      1 <0>         0.0736
     23 N5          3.1734    2.8713    4.1230 N.ar      1 <0>        -0.4244
     24 H1          0.6131    2.0861    0.2333 H         1 <0>         0.0754
     25 H2         -1.0615    2.1790   -0.3629 H         1 <0>         0.0760
     26 H3         -0.7447    2.0418    1.3833 H         1 <0>         0.0748
     27 H4         -0.8272    0.2636   -1.8268 H         1 <0>         0.1357
     28 H5         -0.8982   -2.2144   -1.9983 H         1 <0>         0.1377
     29 H6         -0.5546   -3.5619    0.0588 H         1 <0>         0.1398
     30 H7         -0.6899   -6.2203    4.9077 H         1 <0>         0.4235
     31 H8         -1.4292   -6.2975    3.4010 H         1 <0>         0.4196
     32 H9          0.4684   -0.3670    5.6685 H         1 <0>         0.1358
     33 H10         1.5586    1.7899    5.9116 H         1 <0>         0.1428
     34 H11         2.2974   -0.9405    1.8299 H         1 <0>         0.1313
     35 H12         4.8129    2.9108    1.2322 H         1 <0>         0.1743
     36 H13         4.4481    4.2602    3.2610 H         1 <0>         0.1744
@<TRIPOS>BOND
     1    1    2 1
     2    1   24 1
     3    1   25 1
     4    1   26 1
     5    2    7 ar
     6    2    3 ar
     7    3    4 ar
     8    3   27 1
     9    4    5 ar
    10    4   28 1
    11    5    6 ar
    12    5   29 1
    13    6    7 ar
    14    6    8 1
    15    8   12 1
    16    8    9 2
    17    9   10 1
    18    9   14 1
    19   10   11 1
    20   11   12 2
    21   11   13 1
    22   13   30 1
    23   13   31 1
    24   14   19 ar
    25   14   15 ar
    26   15   16 ar
    27   15   32 1
    28   16   17 ar
    29   16   33 1
    30   17   23 ar
    31   17   18 ar
    32   18   19 ar
    33   18   20 ar
    34   19   34 1
    35   20   21 ar
    36   21   22 ar
    37   21   35 1
    38   22   23 ar
    39   22   36 1
@<TRIPOS>MOLECULE
CHEMBL480742
   38    41     0     0     0
SMALL
USER_CHARGES

@<TRIPOS>ATOM
      1 C1         -0.0184    1.5028    0.0103 C.3       1 <0>        -0.1139
      2 C2          0.0021   -0.0041    0.0020 C.ar      1 <0>         0.1265
      3 C3          0.0055   -0.6808   -1.2064 C.ar      1 <0>         0.0804
      4 C4          0.0244   -2.0708   -1.2089 C.ar      1 <0>        -0.0940
      5 C5          0.0392   -2.7330    0.0054 C.ar      1 <0>        -0.1282
      6 C6          0.0346   -1.9876    1.1845 C.ar      1 <0>         0.1533
      7 N1          0.0218   -0.6601    1.1442 N.ar      1 <0>        -0.4257
      8 C7          0.0503   -2.6818    2.4914 C.2       1 <0>         0.0959
      9 C8          0.5156   -2.1631    3.6856 C.2       1 <0>         0.1529
     10 N2          0.3372   -3.1521    4.6340 N.pl3     1 <0>        -0.5466
     11 H1          0.5661   -3.0953    5.5749 H         1 <0>         0.4640
     12 C9         -0.2198   -4.2207    4.0013 C.cat     1 <0>         0.6080
     13 N3         -0.3918   -3.9317    2.7337 N.pl3     1 <0>        -0.5103
     14 N4         -0.5567   -5.4190    4.6012 N.pl3     1 <0>        -0.7967
     15 C10         1.0884   -0.8223    3.9036 C.ar      1 <0>        -0.0255
     16 C11         2.0326   -0.3088    2.9935 C.ar      1 <0>        -0.0528
     17 C12         2.5731    0.9220    3.1734 C.ar      1 <0>        -0.0685
     18 C13         2.1929    1.7050    4.2803 C.ar      1 <0>         0.0996
     19 C14         1.2424    1.1993    5.2049 C.ar      1 <0>         0.0711
     20 C15         0.6896   -0.0732    5.0001 C.ar      1 <0>        -0.0400
     21 N5          0.8814    1.9453    6.2562 N.ar      1 <0>        -0.4214
     22 C16         1.4102    3.1369    6.4213 C.ar      1 <0>         0.0872
     23 C17         2.3447    3.6335    5.5118 C.ar      1 <0>         0.0978
     24 N6          2.7155    2.9200    4.4722 N.ar      1 <0>        -0.4246
     25 F1         -0.0097    0.0032   -2.3714 F         1 <0>        -0.1104
     26 H2          1.0042    1.8801    0.0026 H         1 <0>         0.0930
     27 H3         -0.5455    1.8639   -0.8728 H         1 <0>         0.0885
     28 H4         -0.5286    1.8543    0.9071 H         1 <0>         0.0886
     29 H5          0.0271   -2.6213   -2.1380 H         1 <0>         0.1636
     30 H6          0.0537   -3.8124    0.0402 H         1 <0>         0.1460
     31 H7         -0.3987   -5.5479    5.5495 H         1 <0>         0.4432
     32 H8         -0.9512   -6.1313    4.0740 H         1 <0>         0.4424
     33 H9          2.3302   -0.9027    2.1419 H         1 <0>         0.1337
     34 H10         3.2963    1.3019    2.4670 H         1 <0>         0.1500
     35 H11        -0.0383   -0.4683    5.6933 H         1 <0>         0.1428
     36 H12         1.1181    3.7383    7.2695 H         1 <0>         0.1843
     37 H13         2.7685    4.6151    5.6641 H         1 <0>         0.1846
     38 H14        -0.7757   -4.5273    2.0714 H         1 <0>         0.4608
@<TRIPOS>BOND
     1    1    2 1
     2    1   26 1
     3    1   27 1
     4    1   28 1
     5    2    7 ar
     6    2    3 ar
     7    3    4 ar
     8    3   25 1
     9    4    5 ar
    10    4   29 1
    11    5    6 ar
    12    5   30 1
    13    6    7 ar
    14    6    8 1
    15    8   13 1
    16    8    9 2
    17    9   10 1
    18    9   15 1
    19   10   11 1
    20   10   12 1
    21   12   13 2
    22   12   14 1
    23   13   38 1
    24   14   31 1
    25   14   32 1
    26   15   20 ar
    27   15   16 ar
    28   16   17 ar
    29   16   33 1
    30   17   18 ar
    31   17   34 1
    32   18   24 ar
    33   18   19 ar
    34   19   20 ar
    35   19   21 ar
    36   20   35 1
    37   21   22 ar
    38   22   23 ar
    39   22   36 1
    40   23   24 ar
    41   23   37 1
@<TRIPOS>MOLECULE
CHEMBL480742__1
   37    40     0     0     0
SMALL
USER_CHARGES

@<TRIPOS>ATOM
      1 C1         -0.0184    1.5028    0.0103 C.3       1 <0>        -0.1053
      2 C2          0.0021   -0.0041    0.0020 C.ar      1 <0>         0.1110
      3 C3          0.0055   -0.6808   -1.2064 C.ar      1 <0>         0.0465
      4 C4          0.0244   -2.0708   -1.2089 C.ar      1 <0>        -0.1050
      5 C5          0.0392   -2.7330    0.0054 C.ar      1 <0>        -0.1166
      6 C6          0.0346   -1.9876    1.1845 C.ar      1 <0>         0.1997
      7 N1          0.0218   -0.6601    1.1442 N.ar      1 <0>        -0.4433
      8 C7          0.0503   -2.6818    2.4914 C.2       1 <0>         0.0983
      9 C8          0.5156   -2.1631    3.6856 C.2       1 <0>         0.0284
     10 N2          0.3372   -3.1521    4.6340 N.pl3     1 <0>        -0.5857
     11 H1          0.5661   -3.0953    5.5749 H         1 <0>         0.4223
     12 C9         -0.2198   -4.2207    4.0013 C.2       1 <0>         0.5043
     13 N3         -0.3918   -3.9317    2.7337 N.2       1 <0>        -0.5188
     14 N4         -0.5567   -5.4190    4.6012 N.pl3     1 <0>        -0.8346
     15 C10         1.0884   -0.8223    3.9036 C.ar      1 <0>         0.0339
     16 C11         2.0326   -0.3088    2.9935 C.ar      1 <0>        -0.0499
     17 C12         2.5731    0.9220    3.1734 C.ar      1 <0>        -0.0808
     18 C13         2.1929    1.7050    4.2803 C.ar      1 <0>         0.0841
     19 C14         1.2424    1.1993    5.2049 C.ar      1 <0>         0.0833
     20 C15         0.6896   -0.0732    5.0001 C.ar      1 <0>        -0.0812
     21 N5          0.8814    1.9453    6.2562 N.ar      1 <0>        -0.4268
     22 C16         1.4102    3.1369    6.4213 C.ar      1 <0>         0.0752
     23 C17         2.3447    3.6335    5.5118 C.ar      1 <0>         0.0739
     24 N6          2.7155    2.9200    4.4722 N.ar      1 <0>        -0.4243
     25 F1         -0.0097    0.0032   -2.3714 F         1 <0>        -0.1273
     26 H2          1.0042    1.8801    0.0026 H         1 <0>         0.0835
     27 H3         -0.5455    1.8639   -0.8728 H         1 <0>         0.0793
     28 H4         -0.5286    1.8543    0.9071 H         1 <0>         0.0818
     29 H5          0.0271   -2.6213   -2.1380 H         1 <0>         0.1508
     30 H6          0.0537   -3.8124    0.0402 H         1 <0>         0.1516
     31 H7         -0.3987   -5.5479    5.5495 H         1 <0>         0.4098
     32 H8         -0.9512   -6.1313    4.0740 H         1 <0>         0.4247
     33 H9          2.3302   -0.9027    2.1419 H         1 <0>         0.1298
     34 H10         3.2963    1.3019    2.4670 H         1 <0>         0.1414
     35 H11        -0.0383   -0.4683    5.6933 H         1 <0>         0.1355
     36 H12         1.1181    3.7383    7.2695 H         1 <0>         0.1752
     37 H13         2.7685    4.6151    5.6641 H         1 <0>         0.1752
@<TRIPOS>BOND
     1    1    2 1
     2    1   26 1
     3    1   27 1
     4    1   28 1
     5    2    7 ar
     6    2    3 ar
     7    3    4 ar
     8    3   25 1
     9    4    5 ar
    10    4   29 1
    11    5    6 ar
    12    5   30 1
    13    6    7 ar
    14    6    8 1
    15    8   13 1
    16    8    9 2
    17    9   10 1
    18    9   15 1
    19   10   11 1
    20   10   12 1
    21   12   13 2
    22   12   14 1
    23   14   31 1
    24   14   32 1
    25   15   20 ar
    26   15   16 ar
    27   16   17 ar
    28   16   33 1
    29   17   18 ar
    30   17   34 1
    31   18   24 ar
    32   18   19 ar
    33   19   20 ar
    34   19   21 ar
    35   20   35 1
    36   21   22 ar
    37   22   23 ar
    38   22   36 1
    39   23   24 ar
    40   23   37 1
@<TRIPOS>MOLECULE
CHEMBL480742__2
   37    40     0     0     0
SMALL
USER_CHARGES

@<TRIPOS>ATOM
      1 C1         -0.0184    1.5028    0.0103 C.3       1 <0>        -0.1085
      2 C2          0.0021   -0.0041    0.0020 C.ar      1 <0>         0.1214
      3 C3          0.0056   -0.6805   -1.2065 C.ar      1 <0>         0.0422
      4 C4          0.0249   -2.0710   -1.2103 C.ar      1 <0>        -0.0945
      5 C5          0.0401   -2.7346    0.0022 C.ar      1 <0>        -0.1505
      6 C6          0.0355   -1.9892    1.1843 C.ar      1 <0>         0.2043
      7 N1          0.0218   -0.6599    1.1444 N.ar      1 <0>        -0.4391
      8 C7          0.0515   -2.6816    2.4854 C.2       1 <0>        -0.0032
      9 C8          0.5129   -2.1776    3.6874 C.2       1 <0>         0.1298
     10 N2          0.3455   -3.1331    4.6221 N.2       1 <0>        -0.5224
     11 C9         -0.1908   -4.1967    4.0731 C.2       1 <0>         0.5125
     12 N3         -0.3975   -3.9627    2.7488 N.pl3     1 <0>        -0.5849
     13 N4         -0.5016   -5.3683    4.7361 N.pl3     1 <0>        -0.8326
     14 C10         1.0878   -0.8314    3.9072 C.ar      1 <0>         0.0235
     15 C11         1.8634   -0.2310    2.8995 C.ar      1 <0>        -0.0428
     16 C12         2.4008    1.0023    3.0772 C.ar      1 <0>        -0.0925
     17 C13         2.1857    1.6982    4.2817 C.ar      1 <0>         0.0863
     18 C14         1.4048    1.1027    5.3057 C.ar      1 <0>         0.0773
     19 C15         0.8530   -0.1712    5.1004 C.ar      1 <0>        -0.0533
     20 N5          1.1999    1.7652    6.4503 N.ar      1 <0>        -0.4223
     21 C16         1.7232    2.9591    6.6143 C.ar      1 <0>         0.0707
     22 C17         2.4910    3.5448    5.6065 C.ar      1 <0>         0.0737
     23 N6          2.7071    2.9139    4.4742 N.ar      1 <0>        -0.4274
     24 F1         -0.0101    0.0042   -2.3710 F         1 <0>        -0.1251
     25 H1          1.0042    1.8801    0.0026 H         1 <0>         0.0871
     26 H2         -0.5455    1.8639   -0.8728 H         1 <0>         0.0810
     27 H3         -0.5286    1.8543    0.9071 H         1 <0>         0.0855
     28 H4          0.0277   -2.6204   -2.1402 H         1 <0>         0.1514
     29 H5          0.0549   -3.8140    0.0356 H         1 <0>         0.1393
     30 H6         -0.3240   -5.4496    5.6862 H         1 <0>         0.4260
     31 H7         -0.8974   -6.1095    4.2514 H         1 <0>         0.4099
     32 H8          2.0340   -0.7584    1.9726 H         1 <0>         0.1268
     33 H9          2.9943    1.4502    2.2939 H         1 <0>         0.1382
     34 H10         0.2533   -0.6347    5.8697 H         1 <0>         0.1440
     35 H11         1.5573    3.4930    7.5383 H         1 <0>         0.1740
     36 H12         2.9125    4.5273    5.7591 H         1 <0>         0.1737
     37 H13        -0.7853   -4.5798    2.1087 H         1 <0>         0.4207
@<TRIPOS>BOND
     1    1    2 1
     2    1   25 1
     3    1   26 1
     4    1   27 1
     5    2    7 ar
     6    2    3 ar
     7    3    4 ar
     8    3   24 1
     9    4    5 ar
    10    4   28 1
    11    5    6 ar
    12    5   29 1
    13    6    7 ar
    14    6    8 1
    15    8   12 1
    16    8    9 2
    17    9   10 1
    18    9   14 1
    19   10   11 2
    20   11   12 1
    21   11   13 1
    22   12   37 1
    23   13   30 1
    24   13   31 1
    25   14   19 ar
    26   14   15 ar
    27   15   16 ar
    28   15   32 1
    29   16   17 ar
    30   16   33 1
    31   17   23 ar
    32   17   18 ar
    33   18   19 ar
    34   18   20 ar
    35   19   34 1
    36   20   21 ar
    37   21   22 ar
    38   21   35 1
    39   22   23 ar
    40   22   36 1
@<TRIPOS>MOLECULE
CHEMBL1165374
   50    54     0     0     0
SMALL
USER_CHARGES

@<TRIPOS>ATOM
      1 C1         -0.0184    1.5028    0.0103 C.3       1 <0>        -0.1071
      2 C2          0.0021   -0.0041    0.0020 C.ar      1 <0>         0.1426
      3 C3          0.0056   -0.6792   -1.2048 C.ar      1 <0>        -0.1710
      4 C4          0.0249   -2.0675   -1.2099 C.ar      1 <0>        -0.0634
      5 C5          0.0401   -2.7327    0.0026 C.ar      1 <0>        -0.1757
      6 C6          0.0355   -1.9885    1.1844 C.ar      1 <0>         0.2017
      7 N1          0.0218   -0.6595    1.1444 N.ar      1 <0>        -0.4580
      8 C7          0.0510   -2.6818    2.4865 C.2       1 <0>         0.0235
      9 C8          0.5123   -2.1793    3.6906 C.2       1 <0>         0.0985
     10 N2          0.3408   -3.1390    4.6181 N.2       1 <0>        -0.4650
     11 C9         -0.1929   -4.1917    4.0637 C.2       1 <0>         0.2355
     12 N3         -0.3960   -3.9569    2.7499 N.pl3     1 <0>        -0.5519
     13 H1         -0.7835   -4.5736    2.1092 H         1 <0>         0.4225
     14 C10        -0.5354   -5.4722    4.7807 C.3       1 <0>         0.0045
     15 C11         0.6896   -5.9973    5.4839 C.ar      1 <0>        -0.0820
     16 C12         1.5474   -6.8602    4.8247 C.ar      1 <0>        -0.0814
     17 C13         2.6743   -7.3470    5.4628 C.ar      1 <0>        -0.1195
     18 C14         2.9504   -6.9741    6.7621 C.ar      1 <0>        -0.0672
     19 C15         2.0896   -6.1035    7.4330 C.ar      1 <0>        -0.0265
     20 C16         0.9564   -5.6122    6.7812 C.ar      1 <0>        -0.0418
     21 C17         2.3699   -5.7122    8.7816 C.1       1 <0>         0.2514
     22 N4          2.5923   -5.4018    9.8515 N.1       1 <0>        -0.4117
     23 C18         1.0888   -0.8339    3.9166 C.ar      1 <0>         0.0068
     24 C19         1.8664   -0.2302    2.9137 C.ar      1 <0>        -0.0436
     25 C20         2.4056    1.0021    3.0957 C.ar      1 <0>        -0.1029
     26 C21         2.1901    1.6955    4.3014 C.ar      1 <0>         0.1342
     27 C22         1.4069    1.0946    5.3191 C.ar      1 <0>        -0.1045
     28 C23         0.8534   -0.1770    5.1116 C.ar      1 <0>        -0.0672
     29 C24         1.1963    1.7953    6.5224 C.ar      1 <0>        -0.0531
     30 C25         1.7607    3.0322    6.6554 C.ar      1 <0>        -0.1810
     31 C26         2.5196    3.5647    5.6159 C.ar      1 <0>         0.1302
     32 N5          2.7133    2.9096    4.4967 N.ar      1 <0>        -0.4771
     33 H2          1.0042    1.8801    0.0026 H         1 <0>         0.0827
     34 H3         -0.5455    1.8639   -0.8728 H         1 <0>         0.0771
     35 H4         -0.5286    1.8543    0.9071 H         1 <0>         0.0792
     36 H5         -0.0069   -0.1312   -2.1354 H         1 <0>         0.1386
     37 H6          0.0276   -2.6159   -2.1403 H         1 <0>         0.1389
     38 H7          0.0549   -3.8121    0.0350 H         1 <0>         0.1290
     39 H8         -1.3201   -5.2802    5.5124 H         1 <0>         0.1090
     40 H9         -0.8845   -6.2106    4.0589 H         1 <0>         0.0965
     41 H10         1.3360   -7.1553    3.8076 H         1 <0>         0.1275
     42 H11         3.3391   -8.0207    4.9427 H         1 <0>         0.1346
     43 H12         3.8303   -7.3552    7.2591 H         1 <0>         0.1333
     44 H13         0.2883   -4.9354    7.2931 H         1 <0>         0.1366
     45 H14         2.0378   -0.7544    1.9851 H         1 <0>         0.1203
     46 H15         3.0010    1.4510    2.3145 H         1 <0>         0.1323
     47 H16         0.2518   -0.6411    5.8791 H         1 <0>         0.1330
     48 H17         0.6046    1.3669    7.3179 H         1 <0>         0.1374
     49 H18         1.6185    3.5965    7.5652 H         1 <0>         0.1365
     50 H19         2.9596    4.5438    5.7347 H         1 <0>         0.1577
@<TRIPOS>BOND
     1    1    2 1
     2    1   33 1
     3    1   34 1
     4    1   35 1
     5    2    7 ar
     6    2    3 ar
     7    3    4 ar
     8    3   36 1
     9    4    5 ar
    10    4   37 1
    11    5    6 ar
    12    5   38 1
    13    6    7 ar
    14    6    8 1
    15    8   12 1
    16    8    9 2
    17    9   10 1
    18    9   23 1
    19   10   11 2
    20   11   12 1
    21   11   14 1
    22   12   13 1
    23   14   15 1
    24   14   39 1
    25   14   40 1
    26   15   20 ar
    27   15   16 ar
    28   16   17 ar
    29   16   41 1
    30   17   18 ar
    31   17   42 1
    32   18   19 ar
    33   18   43 1
    34   19   20 ar
    35   19   21 1
    36   20   44 1
    37   21   22 3
    38   23   28 ar
    39   23   24 ar
    40   24   25 ar
    41   24   45 1
    42   25   26 ar
    43   25   46 1
    44   26   32 ar
    45   26   27 ar
    46   27   28 ar
    47   27   29 ar
    48   28   47 1
    49   29   30 ar
    50   29   48 1
    51   30   31 ar
    52   30   49 1
    53   31   32 ar
    54   31   50 1
@<TRIPOS>MOLECULE
CHEMBL1165374__1
   50    54     0     0     0
SMALL
USER_CHARGES

@<TRIPOS>ATOM
      1 C1         -0.0184    1.5028    0.0103 C.3       1 <0>        -0.1032
      2 C2          0.0021   -0.0041    0.0020 C.ar      1 <0>         0.1329
      3 C3          0.0056   -0.6792   -1.2045 C.ar      1 <0>        -0.1722
      4 C4          0.0249   -2.0673   -1.2086 C.ar      1 <0>        -0.0726
      5 C5          0.0401   -2.7315    0.0049 C.ar      1 <0>        -0.1479
      6 C6          0.0355   -1.9874    1.1847 C.ar      1 <0>         0.2086
      7 N1          0.0218   -0.6599    1.1446 N.ar      1 <0>        -0.4683
      8 C7          0.0515   -2.6824    2.4913 C.2       1 <0>         0.0654
      9 C8          0.5167   -2.1657    3.6878 C.2       1 <0>         0.0594
     10 N2          0.3375   -3.1525    4.6276 N.pl3     1 <0>        -0.5578
     11 C9         -0.2178   -4.2167    3.9949 C.2       1 <0>         0.2252
     12 N3         -0.3892   -3.9314    2.7348 N.2       1 <0>        -0.4552
     13 H1          0.5657   -3.0982    5.5688 H         1 <0>         0.4233
     14 C10        -0.5842   -5.5240    4.6489 C.3       1 <0>         0.0061
     15 C11        -2.0366   -5.8278    4.3853 C.ar      1 <0>        -0.0815
     16 C12        -3.0066   -5.3759    5.2627 C.ar      1 <0>        -0.0813
     17 C13        -4.3422   -5.6502    5.0285 C.ar      1 <0>        -0.1196
     18 C14        -4.7158   -6.3767    3.9167 C.ar      1 <0>        -0.0677
     19 C15        -3.7424   -6.8353    3.0271 C.ar      1 <0>        -0.0269
     20 C16        -2.3965   -6.5507    3.2672 C.ar      1 <0>        -0.0425
     21 C17        -4.1229   -7.5900    1.8711 C.1       1 <0>         0.2517
     22 N4         -4.4247   -8.1886    0.9540 N.1       1 <0>        -0.4123
     23 C18         1.0907   -0.8239    3.9102 C.ar      1 <0>         0.0048
     24 C19         2.0350   -0.3081    3.0036 C.ar      1 <0>        -0.0466
     25 C20         2.5769    0.9223    3.1861 C.ar      1 <0>        -0.0916
     26 C21         2.1977    1.7040    4.2938 C.ar      1 <0>         0.1352
     27 C22         1.2464    1.1938    5.2132 C.ar      1 <0>        -0.1000
     28 C23         0.6919   -0.0772    5.0076 C.ar      1 <0>        -0.0874
     29 C24         0.8731    1.9831    6.3185 C.ar      1 <0>        -0.0567
     30 C25         1.4492    3.2142    6.4555 C.ar      1 <0>        -0.1762
     31 C26         2.3775    3.6549    5.5154 C.ar      1 <0>         0.1326
     32 N5          2.7220    2.9178    4.4870 N.ar      1 <0>        -0.4744
     33 H2          1.0042    1.8801    0.0026 H         1 <0>         0.0785
     34 H3         -0.5455    1.8639   -0.8728 H         1 <0>         0.0747
     35 H4         -0.5286    1.8543    0.9071 H         1 <0>         0.0750
     36 H5         -0.0069   -0.1317   -2.1353 H         1 <0>         0.1344
     37 H6          0.0276   -2.6165   -2.1385 H         1 <0>         0.1362
     38 H7          0.0549   -3.8109    0.0382 H         1 <0>         0.1389
     39 H8          0.0342   -6.3219    4.2378 H         1 <0>         0.1082
     40 H9         -0.4173   -5.4520    5.7236 H         1 <0>         0.0963
     41 H10        -2.7197   -4.8067    6.1346 H         1 <0>         0.1274
     42 H11        -5.0941   -5.2951    5.7177 H         1 <0>         0.1345
     43 H12        -5.7587   -6.5904    3.7352 H         1 <0>         0.1331
     44 H13        -1.6387   -6.8992    2.5810 H         1 <0>         0.1366
     45 H14         2.3329   -0.9000    2.1507 H         1 <0>         0.1239
     46 H15         3.3008    1.3025    2.4805 H         1 <0>         0.1366
     47 H16        -0.0360   -0.4727    5.7004 H         1 <0>         0.1263
     48 H17         0.1512    1.6251    7.0376 H         1 <0>         0.1374
     49 H18         1.1849    3.8449    7.2914 H         1 <0>         0.1384
     50 H19         2.8250    4.6304    5.6362 H         1 <0>         0.1599
@<TRIPOS>BOND
     1    1    2 1
     2    1   33 1
     3    1   34 1
     4    1   35 1
     5    2    7 ar
     6    2    3 ar
     7    3    4 ar
     8    3   36 1
     9    4    5 ar
    10    4   37 1
    11    5    6 ar
    12    5   38 1
    13    6    7 ar
    14    6    8 1
    15    8   12 1
    16    8    9 2
    17    9   23 1
    18    9   10 1
    19   10   11 1
    20   10   13 1
    21   11   14 1
    22   11   12 2
    23   14   15 1
    24   14   39 1
    25   14   40 1
    26   15   20 ar
    27   15   16 ar
    28   16   17 ar
    29   16   41 1
    30   17   18 ar
    31   17   42 1
    32   18   19 ar
    33   18   43 1
    34   19   20 ar
    35   19   21 1
    36   20   44 1
    37   21   22 3
    38   23   28 ar
    39   23   24 ar
    40   24   25 ar
    41   24   45 1
    42   25   26 ar
    43   25   46 1
    44   26   32 ar
    45   26   27 ar
    46   27   28 ar
    47   27   29 ar
    48   28   47 1
    49   29   30 ar
    50   29   48 1
    51   30   31 ar
    52   30   49 1
    53   31   32 ar
    54   31   50 1
@<TRIPOS>MOLECULE
CHEMBL565814
   61    65     0     0     0
SMALL
USER_CHARGES

@<TRIPOS>ATOM
      1 C1          1.8682    2.5263    0.5841 C.3       1 <0>        -0.0564
      2 N1          1.2184    1.2460    0.2734 N.4       1 <0>        -0.3826
      3 C2          1.7627    0.7127   -0.9825 C.3       1 <0>        -0.0466
      4 C3          1.4716    0.2917    1.3611 C.3       1 <0>        -0.0234
      5 C4          0.7973    0.7875    2.6418 C.3       1 <0>         0.1146
      6 N2          1.0499   -0.1643    3.7266 N.am      1 <0>        -0.7447
      7 C5          0.5492    0.0672    4.9563 C.2       1 <0>         0.7106
      8 O1         -0.1119    1.0659    5.1655 O.2       1 <0>        -0.5599
      9 N3          0.7816   -0.8084    5.9543 N.am      1 <0>        -0.6761
     10 C6          0.3446   -0.5224    7.2508 C.ar      1 <0>         0.1728
     11 C7         -0.8620    0.1610    7.4395 C.ar      1 <0>        -0.1222
     12 C8         -1.3084    0.4513    8.6916 C.ar      1 <0>        -0.0647
     13 C9         -0.5556    0.0637    9.8087 C.ar      1 <0>        -0.0951
     14 C10        -0.9942    0.3510   11.1261 C.ar      1 <0>         0.0873
     15 C11        -0.1931   -0.0661   12.1827 C.ar      1 <0>        -0.1511
     16 C12         0.9922   -0.7401   11.9213 C.ar      1 <0>         0.1460
     17 N4          1.3863   -0.9996   10.6967 N.ar      1 <0>        -0.4845
     18 C13         0.6667   -0.6286    9.6312 C.ar      1 <0>         0.1500
     19 C14         1.1037   -0.9212    8.3291 C.ar      1 <0>        -0.1238
     20 C15        -2.2633    1.0720   11.3683 C.2       1 <0>        -0.1770
     21 C16        -3.5013    0.5138   11.5372 C.2       1 <0>         0.0878
     22 N5         -4.3879    1.5041   11.7379 N.pl3     1 <0>        -0.3833
     23 N6         -3.7154    2.7376   11.6935 N.2       1 <0>        -0.2444
     24 C17        -2.4380    2.5199   11.4802 C.2       1 <0>         0.1412
     25 C18        -1.3751    3.5471   11.3703 C.ar      1 <0>         0.1981
     26 C19        -1.7055    4.8454   10.9848 C.ar      1 <0>        -0.1404
     27 C20        -0.7023    5.7934   10.8871 C.ar      1 <0>        -0.0746
     28 C21         0.6002    5.4124   11.1784 C.ar      1 <0>        -0.1638
     29 C22         0.8569    4.1072   11.5548 C.ar      1 <0>         0.1048
     30 N7         -0.1176    3.2249   11.6450 N.ar      1 <0>        -0.4564
     31 C23        -5.7446    0.9625   11.9356 C.3       1 <0>         0.1276
     32 C24        -5.6950   -0.4850   11.4027 C.3       1 <0>        -0.1316
     33 C25        -4.1985   -0.8307   11.5729 C.3       1 <0>        -0.0689
     34 H1          2.9421    2.3725    0.6899 H         1 <0>         0.1251
     35 H2          1.6803    3.2344   -0.2230 H         1 <0>         0.1290
     36 H3          1.4643    2.9220    1.5160 H         1 <0>         0.1268
     37 H4          2.8366    0.5589   -0.8768 H         1 <0>         0.1237
     38 H5          1.2806   -0.2373   -1.2131 H         1 <0>         0.1251
     39 H6          1.5748    1.4208   -1.7896 H         1 <0>         0.1283
     40 H7          1.0659   -0.6833    1.0908 H         1 <0>         0.1390
     41 H8          2.5456    0.2052    1.5259 H         1 <0>         0.1381
     42 H9          1.2030    1.7624    2.9121 H         1 <0>         0.0908
     43 H10        -0.2767    0.8739    2.4770 H         1 <0>         0.0903
     44 H11         1.5773   -0.9610    3.5597 H         1 <0>         0.4054
     45 H12         1.2520   -1.6370    5.7727 H         1 <0>         0.4111
     46 H13        -1.4452    0.4615    6.5816 H         1 <0>         0.1399
     47 H14        -2.2408    0.9798    8.8246 H         1 <0>         0.1267
     48 H15        -0.4909    0.1333   13.2015 H         1 <0>         0.1354
     49 H16         1.6076   -1.0596   12.7493 H         1 <0>         0.1607
     50 H17         2.0313   -1.4520    8.1738 H         1 <0>         0.1379
     51 H18        -2.7299    5.1074   10.7651 H         1 <0>         0.1394
     52 H19        -0.9278    6.8071   10.5906 H         1 <0>         0.1398
     53 H20         1.4057    6.1287   11.1112 H         1 <0>         0.1389
     54 H21         1.8694    3.8077   11.7817 H         1 <0>         0.1601
     55 H22        -6.0007    0.9655   12.9951 H         1 <0>         0.0952
     56 H23        -6.4700    1.5476   11.3702 H         1 <0>         0.0971
     57 H24        -6.3190   -1.1445   12.0059 H         1 <0>         0.1077
     58 H25        -5.9879   -0.5248   10.3536 H         1 <0>         0.0897
     59 H26        -3.8564   -1.4599   10.7512 H         1 <0>         0.0975
     60 H27        -4.0272   -1.3242   12.5296 H         1 <0>         0.1016
     61 H28         0.2243    1.3884    0.1755 H         1 <0>         0.4306
@<TRIPOS>BOND
     1    1    2 1
     2    1   34 1
     3    1   35 1
     4    1   36 1
     5    2    3 1
     6    2    4 1
     7    2   61 1
     8    3   37 1
     9    3   38 1
    10    3   39 1
    11    4    5 1
    12    4   40 1
    13    4   41 1
    14    5    6 1
    15    5   42 1
    16    5   43 1
    17    6    7 am
    18    6   44 1
    19    7    8 2
    20    7    9 am
    21    9   10 1
    22    9   45 1
    23   10   19 ar
    24   10   11 ar
    25   11   12 ar
    26   11   46 1
    27   12   13 ar
    28   12   47 1
    29   13   18 ar
    30   13   14 ar
    31   14   15 ar
    32   14   20 1
    33   15   16 ar
    34   15   48 1
    35   16   17 ar
    36   16   49 1
    37   17   18 ar
    38   18   19 ar
    39   19   50 1
    40   20   24 1
    41   20   21 2
    42   21   33 1
    43   21   22 1
    44   22   23 1
    45   22   31 1
    46   23   24 2
    47   24   25 1
    48   25   30 ar
    49   25   26 ar
    50   26   27 ar
    51   26   51 1
    52   27   28 ar
    53   27   52 1
    54   28   29 ar
    55   28   53 1
    56   29   30 ar
    57   29   54 1
    58   31   32 1
    59   31   55 1
    60   31   56 1
    61   32   33 1
    62   32   57 1
    63   32   58 1
    64   33   59 1
    65   33   60 1
@<TRIPOS>MOLECULE
CHEMBL585667
   53    57     0     0     0
SMALL
USER_CHARGES

@<TRIPOS>ATOM
      1 C1         -0.0184    1.5028    0.0103 C.3       1 <0>        -0.1113
      2 C2          0.0021   -0.0041    0.0020 C.ar      1 <0>         0.1482
      3 C3          0.0056   -0.6788   -1.2046 C.ar      1 <0>        -0.1442
      4 C4          0.0249   -2.0681   -1.2109 C.ar      1 <0>        -0.0603
      5 C5          0.0401   -2.7343   -0.0003 C.ar      1 <0>        -0.1573
      6 C6          0.0355   -1.9902    1.1843 C.ar      1 <0>         0.1671
      7 N1          0.0218   -0.6595    1.1448 N.ar      1 <0>        -0.4489
      8 C7          0.0510   -2.6826    2.4824 C.2       1 <0>         0.1152
      9 C8          0.5140   -2.1790    3.6907 C.2       1 <0>         0.1285
     10 N2          0.3441   -3.1396    4.6230 N.pl3     1 <0>        -0.5152
     11 C9         -0.1923   -4.2009    4.0703 C.cat     1 <0>         0.5999
     12 N3         -0.3989   -3.9660    2.7462 N.pl3     1 <0>        -0.5452
     13 H1         -0.7868   -4.5828    2.1059 H         1 <0>         0.4586
     14 N4         -0.5045   -5.3727    4.7308 N.pl3     1 <0>        -0.6817
     15 C10        -1.1029   -6.4903    3.9966 C.3       1 <0>         0.1506
     16 C11        -1.3440   -7.6399    4.9407 C.ar      1 <0>        -0.1101
     17 C12        -0.3570   -8.5899    5.1352 C.ar      1 <0>        -0.0901
     18 C13        -0.5709   -9.6448    5.9980 C.ar      1 <0>        -0.0717
     19 C14        -1.7868   -9.7523    6.6761 C.ar      1 <0>         0.0100
     20 C15        -2.7783   -8.7898    6.4754 C.ar      1 <0>        -0.0715
     21 C16        -2.5491   -7.7374    5.6134 C.ar      1 <0>        -0.0900
     22 C17        -2.0161  -10.8449    7.5728 C.1       1 <0>         0.2316
     23 N5         -2.1979  -11.7117    8.2842 N.1       1 <0>        -0.3820
     24 C18         1.0848   -0.8446    3.9133 C.2       1 <0>        -0.0976
     25 C19         2.3361   -0.5878    3.4841 C.2       1 <0>        -0.0174
     26 C20         2.9390    0.7290    3.7328 C.2       1 <0>        -0.1447
     27 C21         2.3455    1.5087    4.6378 C.2       1 <0>         0.0478
     28 C22         1.1559    1.0756    5.4844 C.3       1 <0>         0.0806
     29 C23         0.2526    0.2007    4.6097 C.3       1 <0>        -0.0755
     30 O1          0.4961    2.3072    5.8223 O.3       1 <0>        -0.3679
     31 C24         1.2968    3.3532    5.2345 C.3       1 <0>         0.2028
     32 O2          2.6094    2.7770    5.0362 O.3       1 <0>        -0.3029
     33 H2          1.0042    1.8801    0.0026 H         1 <0>         0.0868
     34 H3         -0.5455    1.8639   -0.8728 H         1 <0>         0.0840
     35 H4         -0.5286    1.8543    0.9071 H         1 <0>         0.0814
     36 H5         -0.0070   -0.1303   -2.1349 H         1 <0>         0.1483
     37 H6          0.0276   -2.6155   -2.1419 H         1 <0>         0.1487
     38 H7          0.0549   -3.8138    0.0308 H         1 <0>         0.1341
     39 H8         -0.3276   -5.4558    5.6809 H         1 <0>         0.4387
     40 H9         -2.0503   -6.1731    3.5610 H         1 <0>         0.0974
     41 H10        -0.4263   -6.8076    3.2031 H         1 <0>         0.0975
     42 H11         0.5830   -8.5055    4.6101 H         1 <0>         0.1394
     43 H12         0.2001  -10.3860    6.1483 H         1 <0>         0.1432
     44 H13        -3.7210   -8.8670    6.9967 H         1 <0>         0.1432
     45 H14        -3.3136   -6.9900    5.4604 H         1 <0>         0.1395
     46 H15         2.8945   -1.3481    2.9581 H         1 <0>         0.1337
     47 H16         3.8248    1.0515    3.2058 H         1 <0>         0.1501
     48 H17         1.4827    0.5377    6.3744 H         1 <0>         0.1145
     49 H18        -0.2479    0.8205    3.8658 H         1 <0>         0.1047
     50 H19        -0.4942   -0.2880    5.2353 H         1 <0>         0.0846
     51 H20         0.8722    3.6602    4.2787 H         1 <0>         0.0849
     52 H21         1.3582    4.2056    5.9111 H         1 <0>         0.1299
     53 H22         0.5830   -3.0577    5.5596 H         1 <0>         0.4600
@<TRIPOS>BOND
     1    1    2 1
     2    1   33 1
     3    1   34 1
     4    1   35 1
     5    2    7 ar
     6    2    3 ar
     7    3    4 ar
     8    3   36 1
     9    4    5 ar
    10    4   37 1
    11    5    6 ar
    12    5   38 1
    13    6    7 ar
    14    6    8 1
    15    8   12 1
    16    8    9 2
    17    9   10 1
    18    9   24 1
    19   10   11 2
    20   10   53 1
    21   11   12 1
    22   11   14 1
    23   12   13 1
    24   14   15 1
    25   14   39 1
    26   15   16 1
    27   15   40 1
    28   15   41 1
    29   16   21 ar
    30   16   17 ar
    31   17   18 ar
    32   17   42 1
    33   18   19 ar
    34   18   43 1
    35   19   20 ar
    36   19   22 1
    37   20   21 ar
    38   20   44 1
    39   21   45 1
    40   22   23 3
    41   24   29 1
    42   24   25 2
    43   25   26 1
    44   25   46 1
    45   26   27 2
    46   26   47 1
    47   27   32 1
    48   27   28 1
    49   28   29 1
    50   28   30 1
    51   28   48 1
    52   29   49 1
    53   29   50 1
    54   30   31 1
    55   31   32 1
    56   31   51 1
    57   31   52 1
@<TRIPOS>MOLECULE
CHEMBL585667__1
   52    56     0     0     0
SMALL
USER_CHARGES

@<TRIPOS>ATOM
      1 C1         -0.2249    1.6631    0.2497 C.3       1 <0>        -0.1054
      2 C2         -0.2776    0.1588    0.1758 C.ar      1 <0>         0.1434
      3 C3         -0.4556   -0.4573   -1.0488 C.ar      1 <0>        -0.1798
      4 C4         -0.5036   -1.8444   -1.1157 C.ar      1 <0>        -0.0630
      5 C5         -0.3706   -2.5674    0.0545 C.ar      1 <0>        -0.1828
      6 C6         -0.1931   -1.8808    1.2603 C.ar      1 <0>         0.2184
      7 N1         -0.1480   -0.5504    1.2786 N.ar      1 <0>        -0.4609
      8 C7         -0.0503   -2.6342    2.5161 C.2       1 <0>        -0.0074
      9 C8          0.6005   -2.2169    3.6695 C.2       1 <0>         0.1289
     10 N2          0.4942   -3.2093    4.5776 N.2       1 <0>        -0.5212
     11 C9         -0.1783   -4.2096    4.0612 C.2       1 <0>         0.5080
     12 N3         -0.5432   -3.9000    2.7875 N.pl3     1 <0>        -0.5850
     13 H1         -1.0517   -4.4617    2.1819 H         1 <0>         0.4176
     14 N4         -0.4752   -5.3912    4.7112 N.pl3     1 <0>        -0.7078
     15 C10        -1.2362   -6.4356    4.0211 C.3       1 <0>         0.1634
     16 C11        -1.4238   -7.6128    4.9431 C.ar      1 <0>        -0.0832
     17 C12        -0.4830   -8.6271    4.9650 C.ar      1 <0>        -0.0956
     18 C13        -0.6484   -9.7076    5.8066 C.ar      1 <0>        -0.0715
     19 C14        -1.7683   -9.7758    6.6379 C.ar      1 <0>        -0.0128
     20 C15        -2.7135   -8.7485    6.6110 C.ar      1 <0>        -0.0714
     21 C16        -2.5331   -7.6715    5.7680 C.ar      1 <0>        -0.0956
     22 C17        -1.9467  -10.8946    7.5137 C.1       1 <0>         0.2458
     23 N5         -2.0883  -11.7822    8.2085 N.1       1 <0>        -0.4041
     24 C18         1.2809   -0.9305    3.8651 C.2       1 <0>        -0.0112
     25 C19         2.3247   -0.6148    3.0734 C.2       1 <0>        -0.0906
     26 C20         3.0431    0.6503    3.2800 C.2       1 <0>        -0.1100
     27 C21         2.8317    1.2889    4.4318 C.2       1 <0>         0.0059
     28 C22         1.9781    0.7373    5.5660 C.3       1 <0>         0.0880
     29 C23         0.7884    0.0019    4.9414 C.3       1 <0>        -0.0775
     30 O1          1.5359    1.9065    6.2758 O.3       1 <0>        -0.3744
     31 C24         2.1432    3.0267    5.5997 C.3       1 <0>         0.2036
     32 O2          3.2798    2.4845    4.8868 O.3       1 <0>        -0.3109
     33 H2          0.8058    1.9969    0.1292 H         1 <0>         0.0806
     34 H3         -0.8394    2.0876   -0.5442 H         1 <0>         0.0753
     35 H4         -0.6028    1.9928    1.2174 H         1 <0>         0.0779
     36 H5         -0.5569    0.1347   -1.9464 H         1 <0>         0.1353
     37 H6         -0.6422   -2.3466   -2.0617 H         1 <0>         0.1357
     38 H7         -0.4036   -3.6468    0.0383 H         1 <0>         0.1261
     39 H8         -0.1799   -5.5297    5.6247 H         1 <0>         0.4256
     40 H9         -2.2106   -6.0431    3.7302 H         1 <0>         0.0735
     41 H10        -0.6925   -6.7538    3.1316 H         1 <0>         0.0735
     42 H11         0.3826   -8.5730    4.3215 H         1 <0>         0.1374
     43 H12         0.0863  -10.4990    5.8222 H         1 <0>         0.1376
     44 H13        -3.5819   -8.7950    7.2514 H         1 <0>         0.1376
     45 H14        -3.2613   -6.8742    5.7492 H         1 <0>         0.1374
     46 H15         2.6323   -1.2899    2.2886 H         1 <0>         0.1206
     47 H16         3.7138    1.0458    2.5316 H         1 <0>         0.1372
     48 H17         2.5585    0.0739    6.2071 H         1 <0>         0.1113
     49 H18         0.0983    0.7251    4.5067 H         1 <0>         0.0904
     50 H19         0.2731   -0.5727    5.7110 H         1 <0>         0.0896
     51 H20         1.4367    3.4716    4.8991 H         1 <0>         0.0760
     52 H21         2.4737    3.7701    6.3252 H         1 <0>         0.1202
@<TRIPOS>BOND
     1    1    2 1
     2    1   33 1
     3    1   34 1
     4    1   35 1
     5    2    7 ar
     6    2    3 ar
     7    3    4 ar
     8    3   36 1
     9    4    5 ar
    10    4   37 1
    11    5    6 ar
    12    5   38 1
    13    6    7 ar
    14    6    8 1
    15    8   12 1
    16    8    9 2
    17    9   10 1
    18    9   24 1
    19   10   11 2
    20   11   12 1
    21   11   14 1
    22   12   13 1
    23   14   15 1
    24   14   39 1
    25   15   16 1
    26   15   40 1
    27   15   41 1
    28   16   21 ar
    29   16   17 ar
    30   17   18 ar
    31   17   42 1
    32   18   19 ar
    33   18   43 1
    34   19   20 ar
    35   19   22 1
    36   20   21 ar
    37   20   44 1
    38   21   45 1
    39   22   23 3
    40   24   29 1
    41   24   25 2
    42   25   26 1
    43   25   46 1
    44   26   27 2
    45   26   47 1
    46   27   32 1
    47   27   28 1
    48   28   29 1
    49   28   30 1
    50   28   48 1
    51   29   49 1
    52   29   50 1
    53   30   31 1
    54   31   32 1
    55   31   51 1
    56   31   52 1
@<TRIPOS>MOLECULE
CHEMBL585667__2
   52    56     0     0     0
SMALL
USER_CHARGES

@<TRIPOS>ATOM
      1 C1         -0.0184    1.5028    0.0103 C.3       1 <0>        -0.1026
      2 C2          0.0021   -0.0041    0.0020 C.ar      1 <0>         0.1308
      3 C3          0.0056   -0.6791   -1.2045 C.ar      1 <0>        -0.1749
      4 C4          0.0249   -2.0677   -1.2094 C.ar      1 <0>        -0.0738
      5 C5          0.0401   -2.7326    0.0031 C.ar      1 <0>        -0.1486
      6 C6          0.0355   -1.9884    1.1846 C.ar      1 <0>         0.2139
      7 N1          0.0218   -0.6597    1.1447 N.ar      1 <0>        -0.4669
      8 C7          0.0510   -2.6829    2.4887 C.2       1 <0>         0.0889
      9 C8          0.5182   -2.1638    3.6895 C.2       1 <0>         0.0344
     10 N2          0.3380   -3.1573    4.6354 N.pl3     1 <0>        -0.5851
     11 C9         -0.2197   -4.2247    3.9972 C.2       1 <0>         0.4975
     12 N3         -0.3911   -3.9338    2.7308 N.2       1 <0>        -0.5166
     13 N4         -0.5575   -5.4250    4.5939 N.pl3     1 <0>        -0.7103
     14 C10        -0.3200   -5.6235    6.0259 C.3       1 <0>         0.1647
     15 C11        -0.7725   -7.0050    6.4233 C.ar      1 <0>        -0.0822
     16 C12        -2.0759   -7.2092    6.8404 C.ar      1 <0>        -0.0958
     17 C13        -2.4968   -8.4711    7.2056 C.ar      1 <0>        -0.0715
     18 C14        -1.6043   -9.5437    7.1532 C.ar      1 <0>        -0.0136
     19 C15        -0.2905   -9.3304    6.7308 C.ar      1 <0>        -0.0716
     20 C16         0.1157   -8.0642    6.3639 C.ar      1 <0>        -0.0958
     21 C17        -2.0341  -10.8562    7.5313 C.1       1 <0>         0.2461
     22 N5         -2.3752  -11.8975    7.8312 N.1       1 <0>        -0.4046
     23 C18         1.0694   -0.8750    3.9029 C.2       1 <0>        -0.0307
     24 C19         2.3232   -0.6184    3.4723 C.2       1 <0>        -0.0787
     25 C20         2.9180    0.6554    3.7021 C.2       1 <0>        -0.1141
     26 C21         2.3413    1.4536    4.6013 C.2       1 <0>         0.0146
     27 C22         1.1506    1.0495    5.4612 C.3       1 <0>         0.0850
     28 C23         0.2367    0.1715    4.5986 C.3       1 <0>        -0.0798
     29 O1          0.5060    2.2944    5.7784 O.3       1 <0>        -0.3735
     30 C24         1.3187    3.3207    5.1724 C.3       1 <0>         0.2036
     31 O2          2.6234    2.7247    4.9806 O.3       1 <0>        -0.3099
     32 H1          1.0042    1.8801    0.0026 H         1 <0>         0.0771
     33 H2         -0.5455    1.8639   -0.8728 H         1 <0>         0.0742
     34 H3         -0.5286    1.8543    0.9071 H         1 <0>         0.0747
     35 H4         -0.0069   -0.1312   -2.1352 H         1 <0>         0.1330
     36 H5          0.0276   -2.6163   -2.1396 H         1 <0>         0.1352
     37 H6          0.0549   -3.8120    0.0356 H         1 <0>         0.1387
     38 H7         -0.9519   -6.1357    4.0646 H         1 <0>         0.4240
     39 H8          0.7440   -5.5152    6.2361 H         1 <0>         0.0730
     40 H9         -0.8800   -4.8804    6.5935 H         1 <0>         0.0728
     41 H10        -2.7652   -6.3787    6.8805 H         1 <0>         0.1374
     42 H11        -3.5142   -8.6291    7.5317 H         1 <0>         0.1374
     43 H12         0.4049  -10.1556    6.6880 H         1 <0>         0.1374
     44 H13         1.1303   -7.8986    6.0332 H         1 <0>         0.1374
     45 H14         2.8786   -1.3837    2.9507 H         1 <0>         0.1241
     46 H15         3.8043    0.9634    3.1675 H         1 <0>         0.1378
     47 H16         1.4735    0.5221    6.3587 H         1 <0>         0.1082
     48 H17        -0.2692    0.7872    3.8550 H         1 <0>         0.0993
     49 H18        -0.5038   -0.3155    5.2331 H         1 <0>         0.0808
     50 H19         0.8959    3.6179    4.2127 H         1 <0>         0.0783
     51 H20         1.3925    4.1828    5.8353 H         1 <0>         0.1217
     52 H21         0.5662   -3.1042    5.5767 H         1 <0>         0.4186
@<TRIPOS>BOND
     1    1    2 1
     2    1   32 1
     3    1   33 1
     4    1   34 1
     5    2    7 ar
     6    2    3 ar
     7    3    4 ar
     8    3   35 1
     9    4    5 ar
    10    4   36 1
    11    5    6 ar
    12    5   37 1
    13    6    7 ar
    14    6    8 1
    15    8   12 1
    16    8    9 2
    17    9   10 1
    18    9   23 1
    19   10   11 1
    20   10   52 1
    21   11   12 2
    22   11   13 1
    23   13   14 1
    24   13   38 1
    25   14   15 1
    26   14   39 1
    27   14   40 1
    28   15   20 ar
    29   15   16 ar
    30   16   17 ar
    31   16   41 1
    32   17   18 ar
    33   17   42 1
    34   18   19 ar
    35   18   21 1
    36   19   20 ar
    37   19   43 1
    38   20   44 1
    39   21   22 3
    40   23   28 1
    41   23   24 2
    42   24   25 1
    43   24   45 1
    44   25   26 2
    45   25   46 1
    46   26   31 1
    47   26   27 1
    48   27   28 1
    49   27   29 1
    50   27   47 1
    51   28   48 1
    52   28   49 1
    53   29   30 1
    54   30   31 1
    55   30   50 1
    56   30   51 1
@<TRIPOS>MOLECULE
CHEMBL585667__3
   53    57     0     0     0
SMALL
USER_CHARGES

@<TRIPOS>ATOM
      1 C1         -0.0184    1.5028    0.0103 C.3       1 <0>        -0.1124
      2 C2          0.0021   -0.0041    0.0020 C.ar      1 <0>         0.1467
      3 C3          0.0056   -0.6788   -1.2046 C.ar      1 <0>        -0.1443
      4 C4          0.0249   -2.0681   -1.2109 C.ar      1 <0>        -0.0598
      5 C5          0.0401   -2.7343   -0.0003 C.ar      1 <0>        -0.1571
      6 C6          0.0355   -1.9902    1.1843 C.ar      1 <0>         0.1702
      7 N1          0.0218   -0.6595    1.1448 N.ar      1 <0>        -0.4503
      8 C7          0.0510   -2.6826    2.4824 C.2       1 <0>         0.1102
      9 C8          0.5140   -2.1790    3.6907 C.2       1 <0>         0.1376
     10 N2          0.3441   -3.1396    4.6230 N.pl3     1 <0>        -0.5156
     11 C9         -0.1923   -4.2009    4.0703 C.cat     1 <0>         0.5985
     12 N3         -0.3989   -3.9660    2.7462 N.pl3     1 <0>        -0.5450
     13 H1         -0.7868   -4.5828    2.1059 H         1 <0>         0.4582
     14 N4         -0.5045   -5.3727    4.7308 N.pl3     1 <0>        -0.6823
     15 C10        -1.1029   -6.4903    3.9966 C.3       1 <0>         0.1508
     16 C11        -1.3440   -7.6399    4.9407 C.ar      1 <0>        -0.1098
     17 C12        -0.3570   -8.5899    5.1352 C.ar      1 <0>        -0.0901
     18 C13        -0.5709   -9.6448    5.9980 C.ar      1 <0>        -0.0716
     19 C14        -1.7868   -9.7523    6.6761 C.ar      1 <0>         0.0097
     20 C15        -2.7783   -8.7898    6.4754 C.ar      1 <0>        -0.0715
     21 C16        -2.5491   -7.7374    5.6134 C.ar      1 <0>        -0.0901
     22 C17        -2.0161  -10.8449    7.5728 C.1       1 <0>         0.2317
     23 N5         -2.1979  -11.7117    8.2842 N.1       1 <0>        -0.3823
     24 C18         1.0848   -0.8446    3.9133 C.2       1 <0>        -0.1230
     25 C19         2.3360   -0.5847    3.4852 C.2       1 <0>         0.0026
     26 C20         2.9102    0.7541    3.6675 C.2       1 <0>        -0.1914
     27 C21         2.0665    1.7507    3.9630 C.2       1 <0>         0.0817
     28 C22         0.5533    1.5755    4.0138 C.3       1 <0>         0.0741
     29 C23         0.2552    0.2035    4.6096 C.3       1 <0>        -0.0567
     30 O1          0.1595    2.6207    4.9324 O.3       1 <0>        -0.3602
     31 C24         1.0720    3.6870    4.5740 C.3       1 <0>         0.1986
     32 O2          2.3190    3.0447    4.2501 O.3       1 <0>        -0.3020
     33 H2          1.0042    1.8801    0.0026 H         1 <0>         0.0870
     34 H3         -0.5455    1.8639   -0.8728 H         1 <0>         0.0857
     35 H4         -0.5286    1.8543    0.9071 H         1 <0>         0.0785
     36 H5         -0.0070   -0.1303   -2.1349 H         1 <0>         0.1480
     37 H6          0.0276   -2.6155   -2.1419 H         1 <0>         0.1486
     38 H7          0.0549   -3.8138    0.0308 H         1 <0>         0.1342
     39 H8         -0.3276   -5.4558    5.6809 H         1 <0>         0.4386
     40 H9         -2.0503   -6.1731    3.5610 H         1 <0>         0.0971
     41 H10        -0.4263   -6.8076    3.2031 H         1 <0>         0.0973
     42 H11         0.5830   -8.5055    4.6101 H         1 <0>         0.1394
     43 H12         0.2001  -10.3860    6.1483 H         1 <0>         0.1431
     44 H13        -3.7210   -8.8670    6.9967 H         1 <0>         0.1431
     45 H14        -3.3136   -6.9900    5.4604 H         1 <0>         0.1394
     46 H15         2.9161   -1.3610    3.0085 H         1 <0>         0.1323
     47 H16         3.9714    0.9280    3.5676 H         1 <0>         0.1468
     48 H17         0.0961    1.6937    3.0314 H         1 <0>         0.1191
     49 H18        -0.8026   -0.0264    4.4813 H         1 <0>         0.0913
     50 H19         0.4983    0.2123    5.6721 H         1 <0>         0.0930
     51 H20         0.6933    4.2308    3.7086 H         1 <0>         0.0908
     52 H21         1.2063    4.3658    5.4161 H         1 <0>         0.1315
     53 H22         0.5830   -3.0577    5.5596 H         1 <0>         0.4602
@<TRIPOS>BOND
     1    1    2 1
     2    1   33 1
     3    1   34 1
     4    1   35 1
     5    2    7 ar
     6    2    3 ar
     7    3    4 ar
     8    3   36 1
     9    4    5 ar
    10    4   37 1
    11    5    6 ar
    12    5   38 1
    13    6    7 ar
    14    6    8 1
    15    8   12 1
    16    8    9 2
    17    9   10 1
    18    9   24 1
    19   10   11 2
    20   10   53 1
    21   11   12 1
    22   11   14 1
    23   12   13 1
    24   14   15 1
    25   14   39 1
    26   15   16 1
    27   15   40 1
    28   15   41 1
    29   16   21 ar
    30   16   17 ar
    31   17   18 ar
    32   17   42 1
    33   18   19 ar
    34   18   43 1
    35   19   20 ar
    36   19   22 1
    37   20   21 ar
    38   20   44 1
    39   21   45 1
    40   22   23 3
    41   24   29 1
    42   24   25 2
    43   25   26 1
    44   25   46 1
    45   26   27 2
    46   26   47 1
    47   27   32 1
    48   27   28 1
    49   28   29 1
    50   28   30 1
    51   28   48 1
    52   29   49 1
    53   29   50 1
    54   30   31 1
    55   31   32 1
    56   31   51 1
    57   31   52 1
@<TRIPOS>MOLECULE
CHEMBL585667__4
   52    56     0     0     0
SMALL
USER_CHARGES

@<TRIPOS>ATOM
      1 C1         -0.1961    1.6508    0.2290 C.3       1 <0>        -0.1053
      2 C2         -0.2498    0.1463    0.1605 C.ar      1 <0>         0.1432
      3 C3         -0.4194   -0.4743   -1.0631 C.ar      1 <0>        -0.1802
      4 C4         -0.4682   -1.8616   -1.1250 C.ar      1 <0>        -0.0627
      5 C5         -0.3446   -2.5802    0.0489 C.ar      1 <0>        -0.1830
      6 C6         -0.1752   -1.8892    1.2534 C.ar      1 <0>         0.2205
      7 N1         -0.1290   -0.5587    1.2668 N.ar      1 <0>        -0.4614
      8 C7         -0.0424   -2.6379    2.5130 C.2       1 <0>        -0.0103
      9 C8          0.6005   -2.2169    3.6695 C.2       1 <0>         0.1351
     10 N2          0.4865   -3.2056    4.5806 N.2       1 <0>        -0.5220
     11 C9         -0.1833   -4.2072    4.0632 C.2       1 <0>         0.5072
     12 N3         -0.5387   -3.9022    2.7857 N.pl3     1 <0>        -0.5853
     13 H1         -1.0434   -4.4656    2.1786 H         1 <0>         0.4173
     14 N4         -0.4863   -5.3860    4.7155 N.pl3     1 <0>        -0.7081
     15 C10        -1.2435   -6.4322    4.0239 C.3       1 <0>         0.1635
     16 C11        -1.4390   -7.6057    4.9491 C.ar      1 <0>        -0.0830
     17 C12        -0.4996   -8.6209    4.9817 C.ar      1 <0>        -0.0956
     18 C13        -0.6723   -9.6979    5.8262 C.ar      1 <0>        -0.0715
     19 C14        -1.7982   -9.7618    6.6496 C.ar      1 <0>        -0.0131
     20 C15        -2.7420   -8.7335    6.6119 C.ar      1 <0>        -0.0714
     21 C16        -2.5543   -7.6600    5.7661 C.ar      1 <0>        -0.0957
     22 C17        -1.9842  -10.8770    7.5284 C.1       1 <0>         0.2459
     23 N5         -2.1318  -11.7617    8.2255 N.1       1 <0>        -0.4043
     24 C18         1.2809   -0.9305    3.8651 C.2       1 <0>        -0.0326
     25 C19         2.3252   -0.6118    3.0749 C.2       1 <0>        -0.0717
     26 C20         2.9953    0.6847    3.2326 C.2       1 <0>        -0.1529
     27 C21         2.3538    1.6280    3.9335 C.2       1 <0>         0.0387
     28 C22         0.9401    1.4491    4.4743 C.3       1 <0>         0.0799
     29 C23         0.7909    0.0047    4.9408 C.3       1 <0>        -0.0579
     30 O1          0.9347    2.3481    5.6071 O.3       1 <0>        -0.3652
     31 C24         1.7257    3.4544    5.1088 C.3       1 <0>         0.2010
     32 O2          2.7548    2.8653    4.2924 O.3       1 <0>        -0.3125
     33 H2          0.8357    1.9832    0.1148 H         1 <0>         0.0809
     34 H3         -0.8044    2.0729   -0.5710 H         1 <0>         0.0758
     35 H4         -0.5809    1.9846    1.1926 H         1 <0>         0.0755
     36 H5         -0.5135    0.1143   -1.9636 H         1 <0>         0.1348
     37 H6         -0.6003   -2.3673   -2.0701 H         1 <0>         0.1354
     38 H7         -0.3785   -3.6596    0.0366 H         1 <0>         0.1260
     39 H8         -0.1977   -5.5213    5.6317 H         1 <0>         0.4255
     40 H9         -2.2153   -6.0398    3.7245 H         1 <0>         0.0733
     41 H10        -0.6936   -6.7545    3.1397 H         1 <0>         0.0734
     42 H11         0.3708   -8.5702    4.3443 H         1 <0>         0.1375
     43 H12         0.0614  -10.4901    5.8501 H         1 <0>         0.1376
     44 H13        -3.6151   -8.7767    7.2461 H         1 <0>         0.1376
     45 H14        -3.2815   -6.8619    5.7389 H         1 <0>         0.1374
     46 H15         2.6690   -1.3102    2.3263 H         1 <0>         0.1194
     47 H16         3.9676    0.8703    2.8007 H         1 <0>         0.1343
     48 H17         0.1842    1.7112    3.7340 H         1 <0>         0.1090
     49 H18        -0.2583   -0.2026    5.1517 H         1 <0>         0.0861
     50 H19         1.3792   -0.1435    5.8463 H         1 <0>         0.0913
     51 H20         1.1051    4.1202    4.5091 H         1 <0>         0.0810
     52 H21         2.1717    4.0017    5.9392 H         1 <0>         0.1217
@<TRIPOS>BOND
     1    1    2 1
     2    1   33 1
     3    1   34 1
     4    1   35 1
     5    2    7 ar
     6    2    3 ar
     7    3    4 ar
     8    3   36 1
     9    4    5 ar
    10    4   37 1
    11    5    6 ar
    12    5   38 1
    13    6    7 ar
    14    6    8 1
    15    8   12 1
    16    8    9 2
    17    9   10 1
    18    9   24 1
    19   10   11 2
    20   11   12 1
    21   11   14 1
    22   12   13 1
    23   14   15 1
    24   14   39 1
    25   15   16 1
    26   15   40 1
    27   15   41 1
    28   16   21 ar
    29   16   17 ar
    30   17   18 ar
    31   17   42 1
    32   18   19 ar
    33   18   43 1
    34   19   20 ar
    35   19   22 1
    36   20   21 ar
    37   20   44 1
    38   21   45 1
    39   22   23 3
    40   24   29 1
    41   24   25 2
    42   25   26 1
    43   25   46 1
    44   26   27 2
    45   26   47 1
    46   27   32 1
    47   27   28 1
    48   28   29 1
    49   28   30 1
    50   28   48 1
    51   29   49 1
    52   29   50 1
    53   30   31 1
    54   31   32 1
    55   31   51 1
    56   31   52 1
@<TRIPOS>MOLECULE
CHEMBL585667__5
   52    56     0     0     0
SMALL
USER_CHARGES

@<TRIPOS>ATOM
      1 C1         -0.0184    1.5028    0.0103 C.3       1 <0>        -0.1034
      2 C2          0.0021   -0.0041    0.0020 C.ar      1 <0>         0.1295
      3 C3          0.0056   -0.6791   -1.2045 C.ar      1 <0>        -0.1750
      4 C4          0.0249   -2.0677   -1.2094 C.ar      1 <0>        -0.0734
      5 C5          0.0401   -2.7326    0.0031 C.ar      1 <0>        -0.1485
      6 C6          0.0355   -1.9884    1.1846 C.ar      1 <0>         0.2169
      7 N1          0.0218   -0.6597    1.1447 N.ar      1 <0>        -0.4676
      8 C7          0.0510   -2.6829    2.4887 C.2       1 <0>         0.0839
      9 C8          0.5182   -2.1638    3.6895 C.2       1 <0>         0.0446
     10 N2          0.3380   -3.1573    4.6354 N.pl3     1 <0>        -0.5860
     11 C9         -0.2197   -4.2247    3.9972 C.2       1 <0>         0.4950
     12 N3         -0.3911   -3.9338    2.7308 N.2       1 <0>        -0.5166
     13 N4         -0.5575   -5.4250    4.5939 N.pl3     1 <0>        -0.7108
     14 C10        -0.3200   -5.6235    6.0259 C.3       1 <0>         0.1649
     15 C11        -0.7725   -7.0050    6.4233 C.ar      1 <0>        -0.0818
     16 C12        -2.0759   -7.2092    6.8404 C.ar      1 <0>        -0.0960
     17 C13        -2.4968   -8.4711    7.2056 C.ar      1 <0>        -0.0715
     18 C14        -1.6043   -9.5437    7.1532 C.ar      1 <0>        -0.0140
     19 C15        -0.2905   -9.3304    6.7308 C.ar      1 <0>        -0.0716
     20 C16         0.1157   -8.0642    6.3639 C.ar      1 <0>        -0.0959
     21 C17        -2.0341  -10.8562    7.5313 C.1       1 <0>         0.2463
     22 N5         -2.3752  -11.8975    7.8312 N.1       1 <0>        -0.4050
     23 C18         1.0694   -0.8750    3.9029 C.2       1 <0>        -0.0591
     24 C19         2.3231   -0.6152    3.4733 C.2       1 <0>        -0.0558
     25 C20         2.8932    0.6770    3.6465 C.2       1 <0>        -0.1632
     26 C21         2.0694    1.6895    3.9428 C.2       1 <0>         0.0516
     27 C22         0.5529    1.5443    4.0029 C.3       1 <0>         0.0791
     28 C23         0.2393    0.1742    4.5985 C.3       1 <0>        -0.0603
     29 O1          0.1872    2.5923    4.9298 O.3       1 <0>        -0.3657
     30 C24         1.1159    3.6430    4.5668 C.3       1 <0>         0.2001
     31 O2          2.3476    2.9794    4.2279 O.3       1 <0>        -0.3108
     32 H1          1.0042    1.8801    0.0026 H         1 <0>         0.0773
     33 H2         -0.5455    1.8639   -0.8728 H         1 <0>         0.0756
     34 H3         -0.5286    1.8543    0.9071 H         1 <0>         0.0720
     35 H4         -0.0069   -0.1312   -2.1352 H         1 <0>         0.1326
     36 H5          0.0276   -2.6163   -2.1396 H         1 <0>         0.1349
     37 H6          0.0549   -3.8120    0.0356 H         1 <0>         0.1387
     38 H7         -0.9519   -6.1357    4.0646 H         1 <0>         0.4236
     39 H8          0.7440   -5.5152    6.2361 H         1 <0>         0.0728
     40 H9         -0.8800   -4.8804    6.5935 H         1 <0>         0.0726
     41 H10        -2.7652   -6.3787    6.8805 H         1 <0>         0.1373
     42 H11        -3.5142   -8.6291    7.5317 H         1 <0>         0.1373
     43 H12         0.4049  -10.1556    6.6880 H         1 <0>         0.1373
     44 H13         1.1303   -7.8986    6.0332 H         1 <0>         0.1374
     45 H14         2.8977   -1.3945    2.9948 H         1 <0>         0.1227
     46 H15         3.9564    0.8356    3.5426 H         1 <0>         0.1347
     47 H16         0.0899    1.6737    3.0246 H         1 <0>         0.1157
     48 H17        -0.8188   -0.0492    4.4621 H         1 <0>         0.0884
     49 H18         0.4769    0.1803    5.6622 H         1 <0>         0.0843
     50 H19         0.7389    4.1975    3.7074 H         1 <0>         0.0831
     51 H20         1.2709    4.3156    5.4103 H         1 <0>         0.1230
     52 H21         0.5662   -3.1042    5.5767 H         1 <0>         0.4186
@<TRIPOS>BOND
     1    1    2 1
     2    1   32 1
     3    1   33 1
     4    1   34 1
     5    2    7 ar
     6    2    3 ar
     7    3    4 ar
     8    3   35 1
     9    4    5 ar
    10    4   36 1
    11    5    6 ar
    12    5   37 1
    13    6    7 ar
    14    6    8 1
    15    8   12 1
    16    8    9 2
    17    9   10 1
    18    9   23 1
    19   10   11 1
    20   10   52 1
    21   11   12 2
    22   11   13 1
    23   13   14 1
    24   13   38 1
    25   14   15 1
    26   14   39 1
    27   14   40 1
    28   15   20 ar
    29   15   16 ar
    30   16   17 ar
    31   16   41 1
    32   17   18 ar
    33   17   42 1
    34   18   19 ar
    35   18   21 1
    36   19   20 ar
    37   19   43 1
    38   20   44 1
    39   21   22 3
    40   23   28 1
    41   23   24 2
    42   24   25 1
    43   24   45 1
    44   25   26 2
    45   25   46 1
    46   26   31 1
    47   26   27 1
    48   27   28 1
    49   27   29 1
    50   27   47 1
    51   28   48 1
    52   28   49 1
    53   29   30 1
    54   30   31 1
    55   30   50 1
    56   30   51 1
@<TRIPOS>MOLECULE
CHEMBL571452
   38    41     0     0     0
SMALL
USER_CHARGES

@<TRIPOS>ATOM
      1 C1         -0.0264    1.5013    0.0096 C.3       1 <0>        -0.1024
      2 C2         -0.0004   -0.0055    0.0016 C.ar      1 <0>         0.1220
      3 C3          0.0063   -0.6818   -1.2060 C.ar      1 <0>        -0.1555
      4 C4          0.0303   -2.0684   -1.2084 C.ar      1 <0>        -0.0820
      5 C5          0.0467   -2.7313    0.0078 C.ar      1 <0>        -0.1277
      6 C6          0.0387   -1.9866    1.1844 C.ar      1 <0>         0.1734
      7 N1          0.0210   -0.6606    1.1433 N.ar      1 <0>        -0.4263
      8 C7          0.0561   -2.6819    2.4951 C.ar      1 <0>         0.4032
      9 N2          0.0843   -4.0011    2.5106 N.ar      1 <0>        -0.5238
     10 C8          0.1007   -4.6653    3.6734 C.ar      1 <0>         0.1864
     11 C9          0.1313   -6.0665    3.7267 C.ar      1 <0>        -0.1004
     12 C10         0.1474   -6.6936    4.9368 C.ar      1 <0>        -0.0767
     13 C11         0.1335   -5.9649    6.1229 C.ar      1 <0>        -0.1210
     14 C12         0.1038   -4.6012    6.1074 C.ar      1 <0>        -0.0794
     15 C13         0.0872   -3.9258    4.8824 C.ar      1 <0>        -0.1814
     16 C14         0.0568   -2.5115    4.8048 C.ar      1 <0>         0.4455
     17 N3          0.0479   -1.9486    3.6061 N.ar      1 <0>        -0.4784
     18 N4          0.0421   -1.7393    5.9501 N.pl3     1 <0>        -0.6197
     19 C15         0.1222   -0.3568    5.8561 C.ar      1 <0>         0.4017
     20 C16         0.2166    0.4279    7.0069 C.ar      1 <0>        -0.2675
     21 C17         0.2944    1.7993    6.8607 C.ar      1 <0>         0.1696
     22 N5          0.2771    2.3216    5.6425 N.ar      1 <0>        -0.5463
     23 C18         0.1871    1.5533    4.5758 C.ar      1 <0>         0.3301
     24 N6          0.1159    0.2408    4.6686 N.ar      1 <0>        -0.4848
     25 H1          0.9948    1.8823    0.0024 H         1 <0>         0.0786
     26 H2         -0.5543    1.8602   -0.8739 H         1 <0>         0.0749
     27 H3         -0.5385    1.8511    0.9060 H         1 <0>         0.0787
     28 H4         -0.0073   -0.1350   -2.1372 H         1 <0>         0.1376
     29 H5          0.0356   -2.6189   -2.1375 H         1 <0>         0.1404
     30 H6          0.0652   -3.8106    0.0429 H         1 <0>         0.1480
     31 H7          0.1417   -6.6449    2.8147 H         1 <0>         0.1434
     32 H8          0.1710   -7.7726    4.9760 H         1 <0>         0.1367
     33 H9          0.1460   -6.4865    7.0685 H         1 <0>         0.1335
     34 H10         0.0929   -4.0469    7.0342 H         1 <0>         0.1264
     35 H11        -0.0243   -2.1633    6.8200 H         1 <0>         0.4310
     36 H12         0.2281   -0.0258    7.9869 H         1 <0>         0.1449
     37 H13         0.3681    2.4381    7.7283 H         1 <0>         0.1697
     38 H14         0.1756    2.0119    3.5981 H         1 <0>         0.1977
@<TRIPOS>BOND
     1    1    2 1
     2    1   25 1
     3    1   26 1
     4    1   27 1
     5    2    7 ar
     6    2    3 ar
     7    3    4 ar
     8    3   28 1
     9    4    5 ar
    10    4   29 1
    11    5    6 ar
    12    5   30 1
    13    6    7 ar
    14    6    8 1
    15    8   17 ar
    16    8    9 ar
    17    9   10 ar
    18   10   15 ar
    19   10   11 ar
    20   11   12 ar
    21   11   31 1
    22   12   13 ar
    23   12   32 1
    24   13   14 ar
    25   13   33 1
    26   14   15 ar
    27   14   34 1
    28   15   16 ar
    29   16   17 ar
    30   16   18 1
    31   18   19 1
    32   18   35 1
    33   19   24 ar
    34   19   20 ar
    35   20   21 ar
    36   20   36 1
    37   21   22 ar
    38   21   37 1
    39   22   23 ar
    40   23   24 ar
    41   23   38 1
@<TRIPOS>MOLECULE
CHEMBL1164957
   53    57     0     0     0
SMALL
USER_CHARGES

@<TRIPOS>ATOM
      1 C1         -0.0184    1.5028    0.0103 C.3       1 <0>        -0.1069
      2 C2          0.0021   -0.0041    0.0020 C.ar      1 <0>         0.1426
      3 C3          0.0056   -0.6792   -1.2048 C.ar      1 <0>        -0.1715
      4 C4          0.0249   -2.0675   -1.2099 C.ar      1 <0>        -0.0634
      5 C5          0.0401   -2.7327    0.0026 C.ar      1 <0>        -0.1763
      6 C6          0.0355   -1.9885    1.1844 C.ar      1 <0>         0.2030
      7 N1          0.0218   -0.6595    1.1444 N.ar      1 <0>        -0.4580
      8 C7          0.0510   -2.6818    2.4865 C.2       1 <0>         0.0215
      9 C8          0.5123   -2.1793    3.6906 C.2       1 <0>         0.0985
     10 N2          0.3408   -3.1390    4.6181 N.2       1 <0>        -0.4630
     11 C9         -0.1929   -4.1917    4.0637 C.2       1 <0>         0.2365
     12 N3         -0.3960   -3.9569    2.7499 N.pl3     1 <0>        -0.5524
     13 H1         -0.7835   -4.5736    2.1092 H         1 <0>         0.4220
     14 C10        -0.5354   -5.4722    4.7807 C.3       1 <0>         0.0044
     15 C11         0.6896   -5.9973    5.4839 C.ar      1 <0>        -0.0879
     16 C12         1.5474   -6.8602    4.8248 C.ar      1 <0>        -0.0837
     17 C13         2.6744   -7.3464    5.4630 C.ar      1 <0>        -0.1274
     18 C14         2.9499   -6.9736    6.7626 C.ar      1 <0>        -0.0832
     19 C15         2.0889   -6.1036    7.4330 C.ar      1 <0>        -0.1388
     20 C16         0.9565   -5.6122    6.7813 C.ar      1 <0>        -0.0284
     21 C17         2.3777   -5.7002    8.8258 C.2       1 <0>         0.5630
     22 O1          1.6260   -4.9423    9.4073 O.2       1 <0>        -0.5351
     23 N4          3.4744   -6.1728    9.4506 N.am      1 <0>        -0.8518
     24 C18         1.0888   -0.8339    3.9166 C.ar      1 <0>         0.0063
     25 C19         1.8664   -0.2302    2.9137 C.ar      1 <0>        -0.0434
     26 C20         2.4056    1.0021    3.0957 C.ar      1 <0>        -0.1037
     27 C21         2.1901    1.6955    4.3014 C.ar      1 <0>         0.1341
     28 C22         1.4069    1.0946    5.3191 C.ar      1 <0>        -0.1043
     29 C23         0.8534   -0.1770    5.1116 C.ar      1 <0>        -0.0661
     30 C24         1.1963    1.7953    6.5224 C.ar      1 <0>        -0.0522
     31 C25         1.7607    3.0322    6.6554 C.ar      1 <0>        -0.1815
     32 C26         2.5196    3.5647    5.6159 C.ar      1 <0>         0.1299
     33 N5          2.7133    2.9096    4.4967 N.ar      1 <0>        -0.4776
     34 H2          1.0042    1.8801    0.0026 H         1 <0>         0.0827
     35 H3         -0.5455    1.8639   -0.8728 H         1 <0>         0.0770
     36 H4         -0.5286    1.8543    0.9071 H         1 <0>         0.0793
     37 H5         -0.0069   -0.1312   -2.1354 H         1 <0>         0.1385
     38 H6          0.0276   -2.6159   -2.1403 H         1 <0>         0.1387
     39 H7          0.0549   -3.8121    0.0350 H         1 <0>         0.1286
     40 H8         -1.3201   -5.2802    5.5124 H         1 <0>         0.1087
     41 H9         -0.8845   -6.2106    4.0589 H         1 <0>         0.0947
     42 H10         1.3360   -7.1557    3.8078 H         1 <0>         0.1248
     43 H11         3.3399   -8.0196    4.9430 H         1 <0>         0.1302
     44 H12         3.8297   -7.3544    7.2599 H         1 <0>         0.1263
     45 H13         0.2886   -4.9351    7.2931 H         1 <0>         0.1405
     46 H14         4.0742   -6.7776    8.9866 H         1 <0>         0.4004
     47 H15         3.6638   -5.9081   10.3644 H         1 <0>         0.4063
     48 H16         2.0378   -0.7544    1.9851 H         1 <0>         0.1199
     49 H17         3.0010    1.4510    2.3145 H         1 <0>         0.1321
     50 H18         0.2518   -0.6411    5.8791 H         1 <0>         0.1338
     51 H19         0.6046    1.3669    7.3179 H         1 <0>         0.1381
     52 H20         1.6185    3.5965    7.5652 H         1 <0>         0.1365
     53 H21         2.9596    4.5438    5.7347 H         1 <0>         0.1575
@<TRIPOS>BOND
     1    1    2 1
     2    1   34 1
     3    1   35 1
     4    1   36 1
     5    2    7 ar
     6    2    3 ar
     7    3    4 ar
     8    3   37 1
     9    4    5 ar
    10    4   38 1
    11    5    6 ar
    12    5   39 1
    13    6    7 ar
    14    6    8 1
    15    8   12 1
    16    8    9 2
    17    9   10 1
    18    9   24 1
    19   10   11 2
    20   11   12 1
    21   11   14 1
    22   12   13 1
    23   14   15 1
    24   14   40 1
    25   14   41 1
    26   15   20 ar
    27   15   16 ar
    28   16   17 ar
    29   16   42 1
    30   17   18 ar
    31   17   43 1
    32   18   19 ar
    33   18   44 1
    34   19   20 ar
    35   19   21 1
    36   20   45 1
    37   21   22 2
    38   21   23 am
    39   23   46 1
    40   23   47 1
    41   24   29 ar
    42   24   25 ar
    43   25   26 ar
    44   25   48 1
    45   26   27 ar
    46   26   49 1
    47   27   33 ar
    48   27   28 ar
    49   28   29 ar
    50   28   30 ar
    51   29   50 1
    52   30   31 ar
    53   30   51 1
    54   31   32 ar
    55   31   52 1
    56   32   33 ar
    57   32   53 1
@<TRIPOS>MOLECULE
CHEMBL1164957__1
   53    57     0     0     0
SMALL
USER_CHARGES

@<TRIPOS>ATOM
      1 C1         -0.0184    1.5028    0.0103 C.3       1 <0>        -0.1027
      2 C2          0.0021   -0.0041    0.0020 C.ar      1 <0>         0.1319
      3 C3          0.0056   -0.6792   -1.2045 C.ar      1 <0>        -0.1724
      4 C4          0.0249   -2.0673   -1.2086 C.ar      1 <0>        -0.0724
      5 C5          0.0401   -2.7315    0.0049 C.ar      1 <0>        -0.1469
      6 C6          0.0355   -1.9874    1.1847 C.ar      1 <0>         0.2085
      7 N1          0.0218   -0.6599    1.1446 N.ar      1 <0>        -0.4687
      8 C7          0.0515   -2.6824    2.4913 C.2       1 <0>         0.0654
      9 C8          0.5167   -2.1657    3.6878 C.2       1 <0>         0.0573
     10 N2          0.3375   -3.1525    4.6276 N.pl3     1 <0>        -0.5582
     11 C9         -0.2178   -4.2167    3.9949 C.2       1 <0>         0.2262
     12 N3         -0.3892   -3.9314    2.7348 N.2       1 <0>        -0.4532
     13 H1          0.5657   -3.0982    5.5688 H         1 <0>         0.4228
     14 C10        -0.5842   -5.5240    4.6489 C.3       1 <0>         0.0061
     15 C11        -2.0366   -5.8278    4.3853 C.ar      1 <0>        -0.0874
     16 C12        -3.0067   -5.3759    5.2627 C.ar      1 <0>        -0.0836
     17 C13        -4.3421   -5.6500    5.0279 C.ar      1 <0>        -0.1274
     18 C14        -4.7152   -6.3770    3.9161 C.ar      1 <0>        -0.0837
     19 C15        -3.7419   -6.8357    3.0273 C.ar      1 <0>        -0.1392
     20 C16        -2.3966   -6.5507    3.2671 C.ar      1 <0>        -0.0291
     21 C17        -4.1344   -7.6156    1.8342 C.2       1 <0>         0.5631
     22 O1         -3.2845   -8.0138    1.0618 O.2       1 <0>        -0.5354
     23 N4         -5.4346   -7.8851    1.6030 N.am      1 <0>        -0.8519
     24 C18         1.0907   -0.8239    3.9102 C.ar      1 <0>         0.0062
     25 C19         2.0350   -0.3081    3.0036 C.ar      1 <0>        -0.0463
     26 C20         2.5769    0.9223    3.1861 C.ar      1 <0>        -0.0916
     27 C21         2.1977    1.7040    4.2938 C.ar      1 <0>         0.1349
     28 C22         1.2464    1.1938    5.2132 C.ar      1 <0>        -0.0997
     29 C23         0.6919   -0.0772    5.0076 C.ar      1 <0>        -0.0883
     30 C24         0.8731    1.9831    6.3185 C.ar      1 <0>        -0.0569
     31 C25         1.4492    3.2142    6.4555 C.ar      1 <0>        -0.1763
     32 C26         2.3775    3.6549    5.5154 C.ar      1 <0>         0.1322
     33 N5          2.7220    2.9178    4.4870 N.ar      1 <0>        -0.4742
     34 H2          1.0042    1.8801    0.0026 H         1 <0>         0.0784
     35 H3         -0.5455    1.8639   -0.8728 H         1 <0>         0.0745
     36 H4         -0.5286    1.8543    0.9071 H         1 <0>         0.0746
     37 H5         -0.0069   -0.1317   -2.1353 H         1 <0>         0.1343
     38 H6          0.0276   -2.6165   -2.1385 H         1 <0>         0.1366
     39 H7          0.0549   -3.8109    0.0382 H         1 <0>         0.1399
     40 H8          0.0342   -6.3219    4.2378 H         1 <0>         0.1079
     41 H9         -0.4173   -5.4520    5.7236 H         1 <0>         0.0945
     42 H10        -2.7199   -4.8071    6.1348 H         1 <0>         0.1247
     43 H11        -5.0943   -5.2945    5.7165 H         1 <0>         0.1301
     44 H12        -5.7581   -6.5909    3.7343 H         1 <0>         0.1262
     45 H13        -1.6389   -6.8990    2.5808 H         1 <0>         0.1405
     46 H14        -6.1128   -7.5673    2.2194 H         1 <0>         0.4004
     47 H15        -5.6921   -8.3968    0.8202 H         1 <0>         0.4062
     48 H16         2.3329   -0.9000    2.1507 H         1 <0>         0.1241
     49 H17         3.3008    1.3025    2.4805 H         1 <0>         0.1367
     50 H18        -0.0360   -0.4727    5.7004 H         1 <0>         0.1259
     51 H19         0.1512    1.6251    7.0376 H         1 <0>         0.1371
     52 H20         1.1849    3.8449    7.2914 H         1 <0>         0.1383
     53 H21         2.8250    4.6304    5.6362 H         1 <0>         0.1598
@<TRIPOS>BOND
     1    1    2 1
     2    1   34 1
     3    1   35 1
     4    1   36 1
     5    2    7 ar
     6    2    3 ar
     7    3    4 ar
     8    3   37 1
     9    4    5 ar
    10    4   38 1
    11    5    6 ar
    12    5   39 1
    13    6    7 ar
    14    6    8 1
    15    8   12 1
    16    8    9 2
    17    9   24 1
    18    9   10 1
    19   10   11 1
    20   10   13 1
    21   11   14 1
    22   11   12 2
    23   14   15 1
    24   14   40 1
    25   14   41 1
    26   15   20 ar
    27   15   16 ar
    28   16   17 ar
    29   16   42 1
    30   17   18 ar
    31   17   43 1
    32   18   19 ar
    33   18   44 1
    34   19   20 ar
    35   19   21 1
    36   20   45 1
    37   21   22 2
    38   21   23 am
    39   23   46 1
    40   23   47 1
    41   24   29 ar
    42   24   25 ar
    43   25   26 ar
    44   25   48 1
    45   26   27 ar
    46   26   49 1
    47   27   33 ar
    48   27   28 ar
    49   28   29 ar
    50   28   30 ar
    51   29   50 1
    52   30   31 ar
    53   30   51 1
    54   31   32 ar
    55   31   52 1
    56   32   33 ar
    57   32   53 1
@<TRIPOS>MOLECULE
CHEMBL574413
   61    65     0     0     0
SMALL
USER_CHARGES

@<TRIPOS>ATOM
      1 C1         -5.0872   -2.2098   -1.9239 C.3       1 <0>        -0.1166
      2 C2         -3.7633   -2.7143   -1.4102 C.ar      1 <0>        -0.0858
      3 C3         -2.6047   -2.5069   -2.1419 C.ar      1 <0>        -0.1560
      4 C4         -1.4042   -2.9881   -1.6319 C.ar      1 <0>         0.1123
      5 C5         -1.4107   -3.6602   -0.4057 C.ar      1 <0>         0.1430
      6 N1         -2.5450   -3.8351    0.2593 N.ar      1 <0>        -0.4303
      7 C6         -3.6933   -3.3837   -0.2012 C.ar      1 <0>         0.0992
      8 C7         -4.9514   -3.6045    0.5984 C.3       1 <0>        -0.1020
      9 C8         -0.1410   -4.1814    0.1549 C.ar      1 <0>         0.1695
     10 C9         -0.0197   -4.3730    1.5300 C.ar      1 <0>        -0.1326
     11 C10         1.1717   -4.8606    2.0384 C.ar      1 <0>        -0.0806
     12 C11         2.2039   -5.1410    1.1541 C.ar      1 <0>        -0.1661
     13 C12         2.0148   -4.9271   -0.1988 C.ar      1 <0>         0.0999
     14 N2          0.8687   -4.4667   -0.6573 N.ar      1 <0>        -0.4534
     15 O1         -0.2437   -2.8086   -2.3141 O.3       1 <0>        -0.2174
     16 C13        -0.3078   -2.2267   -3.5387 C.ar      1 <0>         0.1666
     17 C14        -0.4769   -0.8483   -3.6666 C.ar      1 <0>        -0.2419
     18 C15        -0.5373   -0.2909   -4.9261 C.ar      1 <0>         0.1616
     19 N3         -0.4377   -1.0433   -6.0062 N.ar      1 <0>        -0.5189
     20 C16        -0.2763   -2.3565   -5.9293 C.ar      1 <0>         0.4079
     21 C17        -0.2006   -2.9894   -4.6957 C.ar      1 <0>        -0.2271
     22 N4         -0.1769   -3.1076   -7.0960 N.pl3     1 <0>        -0.6595
     23 C18        -0.1375   -2.4677   -8.3379 C.ar      1 <0>         0.2111
     24 C19         0.4723   -1.2248   -8.4611 C.ar      1 <0>        -0.1711
     25 C20         0.5113   -0.5914   -9.6880 C.ar      1 <0>        -0.0514
     26 C21        -0.0550   -1.1909  -10.7967 C.ar      1 <0>        -0.2177
     27 C22        -0.6658   -2.4336  -10.6807 C.ar      1 <0>         0.2391
     28 C23        -0.7021   -3.0751   -9.4504 C.ar      1 <0>        -0.2338
     29 N5         -1.2380   -3.0388  -11.8019 N.pl3     1 <0>        -0.6332
     30 C24        -2.0021   -4.2905  -11.6799 C.3       1 <0>         0.0874
     31 C25        -3.3484   -4.1061  -12.3894 C.3       1 <0>         0.0457
     32 O2         -3.1191   -3.6291  -13.7175 O.3       1 <0>        -0.3793
     33 C26        -2.4854   -2.3491  -13.7783 C.3       1 <0>         0.0450
     34 C27        -1.0997   -2.4404  -13.1391 C.3       1 <0>         0.0868
     35 H1         -5.2545   -1.1952   -1.5622 H         1 <0>         0.0805
     36 H2         -5.0779   -2.2100   -3.0139 H         1 <0>         0.0710
     37 H3         -5.8867   -2.8591   -1.5672 H         1 <0>         0.0787
     38 H4         -2.6338   -1.9839   -3.0863 H         1 <0>         0.1439
     39 H5         -5.4066   -4.5507    0.3056 H         1 <0>         0.0790
     40 H6         -4.7069   -3.6322    1.6603 H         1 <0>         0.0790
     41 H7         -5.6507   -2.7905    0.4077 H         1 <0>         0.0788
     42 H8         -0.8436   -4.1439    2.1896 H         1 <0>         0.1420
     43 H9          1.2954   -5.0191    3.0995 H         1 <0>         0.1380
     44 H10         3.1461   -5.5222    1.5193 H         1 <0>         0.1368
     45 H11         2.8163   -5.1439   -0.8895 H         1 <0>         0.1585
     46 H12        -0.5601   -0.2246   -2.7888 H         1 <0>         0.1403
     47 H13        -0.6682    0.7760   -5.0305 H         1 <0>         0.1668
     48 H14        -0.0644   -4.0591   -4.6361 H         1 <0>         0.1430
     49 H15         0.9159   -0.7535   -7.5964 H         1 <0>         0.1321
     50 H16         0.9851    0.3746   -9.7808 H         1 <0>         0.1233
     51 H17        -0.0232   -0.6928  -11.7545 H         1 <0>         0.1208
     52 H18        -1.1723   -4.0430   -9.3584 H         1 <0>         0.1214
     53 H19        -1.4492   -5.1052  -12.1475 H         1 <0>         0.0702
     54 H20        -2.1700   -4.5169  -10.6270 H         1 <0>         0.0906
     55 H21        -3.8718   -5.0613  -12.4310 H         1 <0>         0.1046
     56 H22        -3.9525   -3.3826  -11.8419 H         1 <0>         0.0556
     57 H23        -2.3880   -2.0401  -14.8191 H         1 <0>         0.1056
     58 H24        -3.0864   -1.6192  -13.2358 H         1 <0>         0.0556
     59 H25        -0.6703   -1.4423  -13.0520 H         1 <0>         0.0945
     60 H26        -0.4544   -3.0657  -13.7561 H         1 <0>         0.0705
     61 H27        -0.1348   -4.0755   -7.0476 H         1 <0>         0.4185
@<TRIPOS>BOND
     1    1    2 1
     2    1   35 1
     3    1   36 1
     4    1   37 1
     5    2    7 ar
     6    2    3 ar
     7    3    4 ar
     8    3   38 1
     9    4    5 ar
    10    4   15 1
    11    5    6 ar
    12    5    9 1
    13    6    7 ar
    14    7    8 1
    15    8   39 1
    16    8   40 1
    17    8   41 1
    18    9   14 ar
    19    9   10 ar
    20   10   11 ar
    21   10   42 1
    22   11   12 ar
    23   11   43 1
    24   12   13 ar
    25   12   44 1
    26   13   14 ar
    27   13   45 1
    28   15   16 1
    29   16   17 ar
    30   16   21 ar
    31   17   46 1
    32   17   18 ar
    33   18   47 1
    34   18   19 ar
    35   19   20 ar
    36   20   22 1
    37   20   21 ar
    38   21   48 1
    39   22   23 1
    40   22   61 1
    41   23   28 ar
    42   23   24 ar
    43   24   25 ar
    44   24   49 1
    45   25   26 ar
    46   25   50 1
    47   26   27 ar
    48   26   51 1
    49   27   28 ar
    50   27   29 1
    51   28   52 1
    52   29   34 1
    53   29   30 1
    54   30   31 1
    55   30   53 1
    56   30   54 1
    57   31   32 1
    58   31   55 1
    59   31   56 1
    60   32   33 1
    61   33   34 1
    62   33   57 1
    63   33   58 1
    64   34   59 1
    65   34   60 1
@<TRIPOS>MOLECULE
CHEMBL574413__1
   62    66     0     0     0
SMALL
USER_CHARGES

@<TRIPOS>ATOM
      1 C1         -5.7359   -1.7905   -2.7120 C.3       1 <0>        -0.1198
      2 C2         -4.5300   -2.3539   -2.0054 C.ar      1 <0>        -0.0857
      3 C3         -3.2694   -2.2314   -2.5683 C.ar      1 <0>        -0.1546
      4 C4         -2.1835   -2.7647   -1.8836 C.ar      1 <0>         0.0876
      5 C5         -2.4027   -3.4019   -0.6582 C.ar      1 <0>         0.1723
      6 N1         -3.6278   -3.4952   -0.1584 N.ar      1 <0>        -0.4265
      7 C6         -4.6709   -2.9931   -0.7863 C.ar      1 <0>         0.1226
      8 C7         -6.0401   -3.1216   -0.1700 C.3       1 <0>        -0.1107
      9 C8         -1.2578   -3.9777    0.0873 C.ar      1 <0>         0.1536
     10 C9         -1.3434   -4.1383    1.4691 C.ar      1 <0>        -0.1248
     11 C10        -0.2666   -4.6776    2.1512 C.ar      1 <0>        -0.0771
     12 C11         0.8617   -5.0390    1.4285 C.ar      1 <0>        -0.1561
     13 C12         0.8785   -4.8517    0.0586 C.ar      1 <0>         0.0988
     14 N2         -0.1622   -4.3408   -0.5671 N.ar      1 <0>        -0.4591
     15 O1         -0.9298   -2.6689   -2.3967 O.3       1 <0>        -0.2106
     16 C13        -0.7857   -2.1160   -3.6279 C.ar      1 <0>         0.2470
     17 C14        -0.8464   -0.7335   -3.8017 C.ar      1 <0>        -0.1945
     18 C15        -0.6954   -0.2063   -5.0665 C.ar      1 <0>         0.1673
     19 N3         -0.4955   -0.9910   -6.1091 N.ar      1 <0>        -0.5037
     20 C16        -0.4312   -2.3092   -5.9880 C.ar      1 <0>         0.4562
     21 C17        -0.5683   -2.9135   -4.7453 C.ar      1 <0>        -0.2014
     22 N4         -0.2193   -3.0949   -7.1163 N.pl3     1 <0>        -0.6348
     23 C18        -0.3349   -4.4851   -7.0315 C.ar      1 <0>         0.1641
     24 C19        -1.3696   -5.0538   -6.2979 C.ar      1 <0>        -0.2007
     25 C20        -1.4842   -6.4277   -6.2132 C.ar      1 <0>        -0.0374
     26 C21        -0.5717   -7.2413   -6.8572 C.ar      1 <0>        -0.1885
     27 C22         0.4647   -6.6794   -7.5925 C.ar      1 <0>         0.2521
     28 C23         0.5798   -5.2992   -7.6841 C.ar      1 <0>        -0.2055
     29 N5          1.3866   -7.5025   -8.2432 N.pl3     1 <0>        -0.6236
     30 C24         2.5654   -6.9350   -8.9168 C.3       1 <0>         0.0828
     31 C25         3.8087   -7.6909   -8.4342 C.3       1 <0>         0.0452
     32 O2          3.5987   -9.0955   -8.5980 O.3       1 <0>        -0.3738
     33 C26         2.5175   -9.6198   -7.8235 C.3       1 <0>         0.0444
     34 C27         1.2111   -8.9632   -8.2701 C.3       1 <0>         0.0809
     35 H1         -5.8924   -0.7587   -2.3971 H         1 <0>         0.0847
     36 H2         -5.5730   -1.8208   -3.7893 H         1 <0>         0.0709
     37 H3         -6.6147   -2.3843   -2.4606 H         1 <0>         0.0845
     38 H4         -3.1340   -1.7334   -3.5171 H         1 <0>         0.1378
     39 H5         -6.5045   -4.0485   -0.5067 H         1 <0>         0.0862
     40 H6         -5.9500   -3.1340    0.9162 H         1 <0>         0.0852
     41 H7         -6.6562   -2.2753   -0.4739 H         1 <0>         0.0837
     42 H8         -2.2371   -3.8458    2.0001 H         1 <0>         0.1446
     43 H9         -0.3035   -4.8138    3.2219 H         1 <0>         0.1424
     44 H10         1.7188   -5.4622    1.9313 H         1 <0>         0.1408
     45 H11         1.7552   -5.1316   -0.5066 H         1 <0>         0.1601
     46 H12        -1.0102   -0.0834   -2.9550 H         1 <0>         0.1881
     47 H13        -0.7416    0.8636   -5.2064 H         1 <0>         0.2177
     48 H14        -0.5108   -3.9876   -4.6490 H         1 <0>         0.1972
     49 H15        -0.3933   -0.5921   -6.9873 H         1 <0>         0.4461
     50 H16        -2.0844   -4.4207   -5.7934 H         1 <0>         0.1258
     51 H17        -2.2887   -6.8670   -5.6420 H         1 <0>         0.1376
     52 H18        -0.6640   -8.3152   -6.7886 H         1 <0>         0.1357
     53 H19         1.3818   -4.8599   -8.2586 H         1 <0>         0.1340
     54 H20         2.4621   -7.0494   -9.9959 H         1 <0>         0.0788
     55 H21         2.6581   -5.8782   -8.6664 H         1 <0>         0.0899
     56 H22         4.6736   -7.3812   -9.0208 H         1 <0>         0.1095
     57 H23         3.9836   -7.4693   -7.3814 H         1 <0>         0.0571
     58 H24         2.4534  -10.6980   -7.9708 H         1 <0>         0.1118
     59 H25         2.6877   -9.4052   -6.7685 H         1 <0>         0.0579
     60 H26         0.4073   -9.2489   -7.5916 H         1 <0>         0.0971
     61 H27         0.9691   -9.2853   -9.2829 H         1 <0>         0.0800
     62 H28         0.0086   -2.6779   -7.9619 H         1 <0>         0.4291
@<TRIPOS>BOND
     1    1    2 1
     2    1   35 1
     3    1   36 1
     4    1   37 1
     5    2    7 ar
     6    2    3 ar
     7    3    4 ar
     8    3   38 1
     9    4    5 ar
    10    4   15 1
    11    5    6 ar
    12    5    9 1
    13    6    7 ar
    14    7    8 1
    15    8   39 1
    16    8   40 1
    17    8   41 1
    18    9   14 ar
    19    9   10 ar
    20   10   11 ar
    21   10   42 1
    22   11   12 ar
    23   11   43 1
    24   12   13 ar
    25   12   44 1
    26   13   14 ar
    27   13   45 1
    28   15   16 1
    29   16   17 ar
    30   16   21 ar
    31   17   46 1
    32   17   18 ar
    33   18   47 1
    34   18   19 ar
    35   19   49 1
    36   19   20 ar
    37   20   22 1
    38   20   21 ar
    39   21   48 1
    40   22   23 1
    41   22   62 1
    42   23   28 ar
    43   23   24 ar
    44   24   25 ar
    45   24   50 1
    46   25   26 ar
    47   25   51 1
    48   26   27 ar
    49   26   52 1
    50   27   28 ar
    51   27   29 1
    52   28   53 1
    53   29   34 1
    54   29   30 1
    55   30   31 1
    56   30   54 1
    57   30   55 1
    58   31   32 1
    59   31   56 1
    60   31   57 1
    61   32   33 1
    62   33   34 1
    63   33   58 1
    64   33   59 1
    65   34   60 1
    66   34   61 1
@<TRIPOS>MOLECULE
CHEMBL574413__2
   61    65     0     0     0
SMALL
USER_CHARGES

@<TRIPOS>ATOM
      1 C1          3.5872   -4.8192   -2.3638 C.3       1 <0>        -0.1154
      2 C2          2.2719   -4.5483   -1.6798 C.ar      1 <0>        -0.0872
      3 C3          1.3866   -3.6226   -2.2091 C.ar      1 <0>        -0.1527
      4 C4          0.1841   -3.4025   -1.5470 C.ar      1 <0>         0.1109
      5 C5         -0.0858   -4.1200   -0.3774 C.ar      1 <0>         0.1451
      6 N1          0.7927   -4.9960    0.0919 N.ar      1 <0>        -0.4307
      7 C6          1.9353   -5.2258   -0.5212 C.ar      1 <0>         0.1006
      8 C7          2.8943   -6.2372    0.0519 C.3       1 <0>        -0.1020
      9 C8         -1.3625   -3.8997    0.3433 C.ar      1 <0>         0.1684
     10 C9         -1.8786   -4.9055    1.1584 C.ar      1 <0>        -0.1326
     11 C10        -3.0715   -4.6851    1.8248 C.ar      1 <0>        -0.0809
     12 C11        -3.7099   -3.4648    1.6542 C.ar      1 <0>        -0.1658
     13 C12        -3.1412   -2.5111    0.8301 C.ar      1 <0>         0.1004
     14 N2         -2.0017   -2.7445    0.2114 N.ar      1 <0>        -0.4518
     15 O1         -0.7140   -2.5046   -2.0282 O.3       1 <0>        -0.2149
     16 C13        -0.4510   -1.9188   -3.2214 C.2       1 <0>         0.1777
     17 C14        -0.4504   -2.6846   -4.4062 C.2       1 <0>        -0.2626
     18 C15        -0.1883   -2.0993   -5.5921 C.2       1 <0>         0.1646
     19 N3          0.0798   -0.7662   -5.6703 N.pl3     1 <0>        -0.5865
     20 C16         0.0891    0.0134   -4.5400 C.2       1 <0>         0.4356
     21 C17        -0.1868   -0.5666   -3.2904 C.2       1 <0>        -0.2188
     22 N4          0.3529    1.3129   -4.6283 N.2       1 <0>        -0.5970
     23 C18         0.4911    2.0597   -3.4947 C.ar      1 <0>         0.1919
     24 C19         1.4924    1.7505   -2.5677 C.ar      1 <0>        -0.2164
     25 C20         1.6294    2.5077   -1.4232 C.ar      1 <0>        -0.0505
     26 C21         0.7799    3.5730   -1.1868 C.ar      1 <0>        -0.2224
     27 C22        -0.2189    3.8894   -2.1012 C.ar      1 <0>         0.2380
     28 C23        -0.3629    3.1396   -3.2578 C.ar      1 <0>        -0.2120
     29 N5         -1.0737    4.9667   -1.8566 N.pl3     1 <0>        -0.6328
     30 C24        -2.1717    5.2879   -2.7822 C.3       1 <0>         0.0866
     31 C25        -3.4639    5.4280   -1.9694 C.3       1 <0>         0.0462
     32 O2         -3.2479    6.3483   -0.8969 O.3       1 <0>        -0.3796
     33 C26        -2.2572    5.9282    0.0443 C.3       1 <0>         0.0456
     34 C27        -0.9067    5.8103   -0.6625 C.3       1 <0>         0.0865
     35 H1          3.4860   -5.6874   -3.0150 H         1 <0>         0.0802
     36 H2          3.8736   -3.9511   -2.9575 H         1 <0>         0.0704
     37 H3          4.3533   -5.0151   -1.6135 H         1 <0>         0.0785
     38 H4          1.6254   -3.0845   -3.1145 H         1 <0>         0.1448
     39 H5          3.5691   -5.7427    0.7506 H         1 <0>         0.0793
     40 H6          2.3348   -7.0130    0.5745 H         1 <0>         0.0788
     41 H7          3.4727   -6.6873   -0.7549 H         1 <0>         0.0784
     42 H8         -1.3553   -5.8439    1.2681 H         1 <0>         0.1419
     43 H9         -3.4961   -5.4459    2.4630 H         1 <0>         0.1378
     44 H10        -4.6423   -3.2620    2.1600 H         1 <0>         0.1366
     45 H11        -3.6356   -1.5605    0.6952 H         1 <0>         0.1579
     46 H12        -0.6601   -3.7432   -4.3630 H         1 <0>         0.1497
     47 H13        -0.1907   -2.6958   -6.4925 H         1 <0>         0.1777
     48 H14        -0.1874    0.0373   -2.3950 H         1 <0>         0.1580
     49 H15         2.1575    0.9189   -2.7481 H         1 <0>         0.1117
     50 H16         2.4029    2.2676   -0.7087 H         1 <0>         0.1190
     51 H17         0.8923    4.1614   -0.2882 H         1 <0>         0.1193
     52 H18        -1.1351    3.3866   -3.9713 H         1 <0>         0.1215
     53 H19        -1.9571    6.2254   -3.2950 H         1 <0>         0.0700
     54 H20        -2.2825    4.4863   -3.5125 H         1 <0>         0.0922
     55 H21        -4.2606    5.8000   -2.6135 H         1 <0>         0.1045
     56 H22        -3.7462    4.4563   -1.5641 H         1 <0>         0.0554
     57 H23        -2.1858    6.6601    0.8488 H         1 <0>         0.1050
     58 H24        -2.5351    4.9584    0.4569 H         1 <0>         0.0553
     59 H25        -0.1802    5.3545    0.0103 H         1 <0>         0.0937
     60 H26        -0.5626    6.8013   -0.9583 H         1 <0>         0.0698
     61 H27         0.2662   -0.3636   -6.5329 H         1 <0>         0.4266
@<TRIPOS>BOND
     1    1    2 1
     2    1   35 1
     3    1   36 1
     4    1   37 1
     5    2    7 ar
     6    2    3 ar
     7    3    4 ar
     8    3   38 1
     9    4    5 ar
    10    4   15 1
    11    5    6 ar
    12    5    9 1
    13    6    7 ar
    14    7    8 1
    15    8   39 1
    16    8   40 1
    17    8   41 1
    18    9   14 ar
    19    9   10 ar
    20   10   11 ar
    21   10   42 1
    22   11   12 ar
    23   11   43 1
    24   12   13 ar
    25   12   44 1
    26   13   14 ar
    27   13   45 1
    28   15   16 1
    29   16   17 1
    30   16   21 2
    31   17   46 1
    32   17   18 2
    33   18   47 1
    34   18   19 1
    35   19   61 1
    36   19   20 1
    37   20   22 2
    38   20   21 1
    39   21   48 1
    40   22   23 1
    41   23   28 ar
    42   23   24 ar
    43   24   25 ar
    44   24   49 1
    45   25   26 ar
    46   25   50 1
    47   26   27 ar
    48   26   51 1
    49   27   28 ar
    50   27   29 1
    51   28   52 1
    52   29   34 1
    53   29   30 1
    54   30   31 1
    55   30   53 1
    56   30   54 1
    57   31   32 1
    58   31   55 1
    59   31   56 1
    60   32   33 1
    61   33   34 1
    62   33   57 1
    63   33   58 1
    64   34   59 1
    65   34   60 1
@<TRIPOS>MOLECULE
CHEMBL574413__3
   61    65     0     0     0
SMALL
USER_CHARGES

@<TRIPOS>ATOM
      1 C1          5.1999   -3.6746   -2.8822 C.3       1 <0>        -0.1163
      2 C2          3.8986   -3.8307   -2.1383 C.ar      1 <0>        -0.0874
      3 C3          2.7513   -3.2036   -2.5979 C.ar      1 <0>        -0.1547
      4 C4          1.5716   -3.3735   -1.8821 C.ar      1 <0>         0.1109
      5 C5          1.5868   -4.1671   -0.7308 C.ar      1 <0>         0.1458
      6 N1          2.7098   -4.7475   -0.3290 N.ar      1 <0>        -0.4307
      7 C6          3.8377   -4.6061   -0.9939 C.ar      1 <0>         0.1005
      8 C7          5.0831   -5.2937   -0.4966 C.3       1 <0>        -0.1024
      9 C8          0.3392   -4.3606    0.0464 C.ar      1 <0>         0.1682
     10 C9          0.1897   -5.4948    0.8424 C.ar      1 <0>        -0.1327
     11 C10        -0.9807   -5.6617    1.5621 C.ar      1 <0>        -0.0810
     12 C11        -1.9643   -4.6878    1.4622 C.ar      1 <0>        -0.1658
     13 C12        -1.7494   -3.5872    0.6532 C.ar      1 <0>         0.1009
     14 N2         -0.6237   -3.4500   -0.0173 N.ar      1 <0>        -0.4521
     15 O1          0.4228   -2.7779   -2.2943 O.3       1 <0>        -0.2131
     16 C13         0.4683   -2.0132   -3.4120 C.2       1 <0>         0.1713
     17 C14         0.7009   -2.6052   -4.6712 C.2       1 <0>        -0.2569
     18 C15         0.7457   -1.8421   -5.7817 C.2       1 <0>         0.1547
     19 N3          0.5689   -0.4934   -5.7115 N.pl3     1 <0>        -0.6243
     20 C16         0.3405    0.1207   -4.5048 C.2       1 <0>         0.4362
     21 C17         0.2818   -0.6488   -3.3307 C.2       1 <0>        -0.1615
     22 N4          0.1704    1.4375   -4.4483 N.2       1 <0>        -0.5759
     23 C18         0.1051    2.1670   -5.5996 C.ar      1 <0>         0.1702
     24 C19        -0.8472    1.8548   -6.5759 C.ar      1 <0>        -0.2398
     25 C20        -0.9105    2.5946   -7.7381 C.ar      1 <0>        -0.0467
     26 C21        -0.0351    3.6453   -7.9437 C.ar      1 <0>        -0.2237
     27 C22         0.9154    3.9646   -6.9802 C.ar      1 <0>         0.2408
     28 C23         0.9851    3.2323   -5.8057 C.ar      1 <0>        -0.2101
     29 N5          1.7966    5.0271   -7.1939 N.pl3     1 <0>        -0.6320
     30 C24         2.8959    5.3002   -6.2545 C.3       1 <0>         0.0855
     31 C25         4.1961    5.4294   -7.0562 C.3       1 <0>         0.0468
     32 O2          4.0084    6.3799   -8.1074 O.3       1 <0>        -0.3789
     33 C26         3.0142    6.0058   -9.0642 C.3       1 <0>         0.0459
     34 C27         1.6568    5.9027   -8.3683 C.3       1 <0>         0.0855
     35 H1          5.2865   -4.4611   -3.6319 H         1 <0>         0.0797
     36 H2          5.2238   -2.7013   -3.3722 H         1 <0>         0.0710
     37 H3          6.0307   -3.7486   -2.1804 H         1 <0>         0.0786
     38 H4          2.7732   -2.5967   -3.4910 H         1 <0>         0.1463
     39 H5          5.6105   -4.6353    0.1937 H         1 <0>         0.0793
     40 H6          4.8089   -6.2148    0.0177 H         1 <0>         0.0789
     41 H7          5.7306   -5.5282   -1.3414 H         1 <0>         0.0785
     42 H8          0.9758   -6.2334    0.8965 H         1 <0>         0.1417
     43 H9         -1.1254   -6.5304    2.1871 H         1 <0>         0.1376
     44 H10        -2.8891   -4.7887    2.0109 H         1 <0>         0.1367
     45 H11        -2.5129   -2.8275    0.5733 H         1 <0>         0.1594
     46 H12         0.8440   -3.6731   -4.7457 H         1 <0>         0.1496
     47 H13         0.9245   -2.3066   -6.7402 H         1 <0>         0.1705
     48 H14         0.0977   -0.1777   -2.3764 H         1 <0>         0.1623
     49 H15        -1.5322    1.0346   -6.4197 H         1 <0>         0.1138
     50 H16        -1.6462    2.3522   -8.4907 H         1 <0>         0.1210
     51 H17        -0.0898    4.2201   -8.8564 H         1 <0>         0.1209
     52 H18         1.7198    3.4816   -5.0543 H         1 <0>         0.1242
     53 H19         2.6999    6.2300   -5.7204 H         1 <0>         0.0717
     54 H20         2.9833    4.4790   -5.5431 H         1 <0>         0.0926
     55 H21         4.9972    5.7671   -6.3987 H         1 <0>         0.1057
     56 H22         4.4583    4.4614   -7.4832 H         1 <0>         0.0546
     57 H23         2.9650    6.7582   -9.8513 H         1 <0>         0.1058
     58 H24         3.2721    5.0399   -9.4984 H         1 <0>         0.0548
     59 H25         0.9242    5.4803   -9.0560 H         1 <0>         0.0940
     60 H26         1.3340    6.8941   -8.0507 H         1 <0>         0.0713
     61 H27         0.6050    0.0385   -6.5218 H         1 <0>         0.4223
@<TRIPOS>BOND
     1    1    2 1
     2    1   35 1
     3    1   36 1
     4    1   37 1
     5    2    7 ar
     6    2    3 ar
     7    3    4 ar
     8    3   38 1
     9    4    5 ar
    10    4   15 1
    11    5    6 ar
    12    5    9 1
    13    6    7 ar
    14    7    8 1
    15    8   39 1
    16    8   40 1
    17    8   41 1
    18    9   14 ar
    19    9   10 ar
    20   10   11 ar
    21   10   42 1
    22   11   12 ar
    23   11   43 1
    24   12   13 ar
    25   12   44 1
    26   13   14 ar
    27   13   45 1
    28   15   16 1
    29   16   17 1
    30   16   21 2
    31   17   46 1
    32   17   18 2
    33   18   47 1
    34   18   19 1
    35   19   61 1
    36   19   20 1
    37   20   22 2
    38   20   21 1
    39   21   48 1
    40   22   23 1
    41   23   28 ar
    42   23   24 ar
    43   24   25 ar
    44   24   49 1
    45   25   26 ar
    46   25   50 1
    47   26   27 ar
    48   26   51 1
    49   27   28 ar
    50   27   29 1
    51   28   52 1
    52   29   34 1
    53   29   30 1
    54   30   31 1
    55   30   53 1
    56   30   54 1
    57   31   32 1
    58   31   55 1
    59   31   56 1
    60   32   33 1
    61   33   34 1
    62   33   57 1
    63   33   58 1
    64   34   59 1
    65   34   60 1
@<TRIPOS>MOLECULE
CHEMBL560815
   40    43     0     0     0
SMALL
USER_CHARGES

@<TRIPOS>ATOM
      1 C1         -1.2102    1.5495    0.1677 C.3       1 <0>        -0.1048
      2 C2         -1.4758    0.0669    0.2178 C.ar      1 <0>         0.1298
      3 C3         -1.9615   -0.5778   -0.9061 C.ar      1 <0>        -0.1605
      4 C4         -2.2046   -1.9423   -0.8555 C.ar      1 <0>        -0.0773
      5 C5         -1.9501   -2.6155    0.3278 C.ar      1 <0>        -0.1315
      6 C6         -1.4617   -1.9029    1.4201 C.ar      1 <0>         0.1619
      7 N1         -1.2375   -0.5984    1.3287 N.ar      1 <0>        -0.4678
      8 C7         -1.1841   -2.6095    2.6949 C.ar      1 <0>         0.2397
      9 C8         -0.6990   -1.8819    3.7868 C.ar      1 <0>        -0.2230
     10 C9         -0.4374   -2.5324    4.9794 C.ar      1 <0>         0.2449
     11 C10        -0.6758   -3.9272    5.0428 C.ar      1 <0>        -0.1328
     12 C11        -0.4346   -4.6531    6.2171 C.ar      1 <0>        -0.0934
     13 C12        -0.6757   -5.9941    6.2425 C.ar      1 <0>        -0.1195
     14 C13        -1.1589   -6.6540    5.1151 C.ar      1 <0>        -0.0917
     15 C14        -1.4035   -5.9794    3.9585 C.ar      1 <0>        -0.0961
     16 C15        -1.1676   -4.5943    3.8948 C.ar      1 <0>         0.1671
     17 N2         -1.4059   -3.9088    2.7726 N.ar      1 <0>        -0.4953
     18 N3          0.0449   -1.8390    6.0810 N.pl3     1 <0>        -0.6634
     19 C16         0.1259   -0.4490    6.0480 C.ar      1 <0>         0.2006
     20 C17        -0.8966    0.3141    5.4845 C.ar      1 <0>        -0.1979
     21 C18        -0.7780    1.6881    5.4716 C.ar      1 <0>         0.1276
     22 N4          0.2850    2.2804    5.9829 N.ar      1 <0>        -0.4963
     23 C19         1.2733    1.5936    6.5248 C.ar      1 <0>         0.1248
     24 C20         1.2288    0.2164    6.5829 C.ar      1 <0>        -0.2026
     25 H1         -0.1854    1.7241   -0.1600 H         1 <0>         0.0792
     26 H2         -1.9006    2.0189   -0.5331 H         1 <0>         0.0771
     27 H3         -1.3524    1.9778    1.1598 H         1 <0>         0.0783
     28 H4         -2.1499   -0.0237   -1.8138 H         1 <0>         0.1381
     29 H5         -2.5840   -2.4681   -1.7192 H         1 <0>         0.1400
     30 H6         -2.1283   -3.6781    0.4026 H         1 <0>         0.1481
     31 H7         -0.5295   -0.8189    3.6992 H         1 <0>         0.1576
     32 H8         -0.0593   -4.1523    7.0973 H         1 <0>         0.1220
     33 H9         -0.4894   -6.5523    7.1481 H         1 <0>         0.1294
     34 H10        -1.3420   -7.7174    5.1593 H         1 <0>         0.1327
     35 H11        -1.7778   -6.5058    3.0929 H         1 <0>         0.1391
     36 H12         0.3256   -2.3225    6.8737 H         1 <0>         0.4160
     37 H13        -1.7687   -0.1642    5.0639 H         1 <0>         0.1406
     38 H14        -1.5648    2.2870    5.0374 H         1 <0>         0.1606
     39 H15         2.1258    2.1171    6.9318 H         1 <0>         0.1608
     40 H16         2.0386   -0.3392    7.0322 H         1 <0>         0.1379
@<TRIPOS>BOND
     1    1    2 1
     2    1   25 1
     3    1   26 1
     4    1   27 1
     5    2    7 ar
     6    2    3 ar
     7    3    4 ar
     8    3   28 1
     9    4    5 ar
    10    4   29 1
    11    5    6 ar
    12    5   30 1
    13    6    7 ar
    14    6    8 1
    15    8   17 ar
    16    8    9 ar
    17    9   10 ar
    18    9   31 1
    19   10   11 ar
    20   10   18 1
    21   11   16 ar
    22   11   12 ar
    23   12   13 ar
    24   12   32 1
    25   13   14 ar
    26   13   33 1
    27   14   15 ar
    28   14   34 1
    29   15   16 ar
    30   15   35 1
    31   16   17 ar
    32   18   19 1
    33   18   36 1
    34   19   24 ar
    35   19   20 ar
    36   20   21 ar
    37   20   37 1
    38   21   22 ar
    39   21   38 1
    40   22   23 ar
    41   23   24 ar
    42   23   39 1
    43   24   40 1
@<TRIPOS>MOLECULE
CHEMBL183354
   32    35     0     0     0
SMALL
USER_CHARGES

@<TRIPOS>ATOM
      1 C1         -0.0167    1.3795    0.0096 C.ar      1 <0>        -0.0867
      2 C2          1.1938    2.0587    0.0017 C.ar      1 <0>        -0.1614
      3 C3          2.3746    1.3400   -0.0134 C.ar      1 <0>         0.0846
      4 N1          2.3647    0.0224   -0.0204 N.ar      1 <0>        -0.3910
      5 C4          1.2295   -0.6646   -0.0132 C.ar      1 <0>         0.1828
      6 C5          0.0021   -0.0041    0.0020 C.ar      1 <0>        -0.1371
      7 C6          1.2668   -2.1464   -0.0216 C.2       1 <0>         0.1589
      8 C7          2.3244   -2.9535   -0.5153 C.2       1 <0>        -0.1774
      9 C8          1.9620   -4.2565   -0.3357 C.2       1 <0>         0.0915
     10 N2          0.7438   -4.2706    0.2394 N.pl3     1 <0>        -0.4592
     11 H1          0.2408   -5.0637    0.4821 H         1 <0>         0.4485
     12 N3          0.3285   -2.9478    0.4324 N.2       1 <0>        -0.2749
     13 C9          3.5892   -2.4702   -1.1155 C.ar      1 <0>         0.2331
     14 C10         4.5390   -3.4039   -1.5640 C.ar      1 <0>        -0.1514
     15 C11         5.7057   -2.9730   -2.1181 C.ar      1 <0>        -0.0456
     16 C12         5.9248   -1.5828   -2.2247 C.ar      1 <0>         0.0668
     17 C13         4.9270   -0.6947   -1.7534 C.ar      1 <0>         0.0867
     18 N4          3.7987   -1.1717   -1.2230 N.ar      1 <0>        -0.4025
     19 C14         5.1494    0.6925   -1.8616 C.ar      1 <0>        -0.0443
     20 C15         6.3217    1.1176   -2.4184 C.ar      1 <0>        -0.1630
     21 C16         7.2595    0.1877   -2.8612 C.ar      1 <0>         0.1261
     22 N5          7.0494   -1.1029   -2.7594 N.ar      1 <0>        -0.4657
     23 H2         -0.9522    1.9189    0.0259 H         1 <0>         0.1358
     24 H3          1.2130    3.1385    0.0070 H         1 <0>         0.1342
     25 H4          3.3180    1.8656   -0.0200 H         1 <0>         0.1525
     26 H5         -0.9212   -0.5643    0.0078 H         1 <0>         0.1359
     27 H6          2.5474   -5.1226   -0.6068 H         1 <0>         0.1893
     28 H7          4.3439   -4.4619   -1.4690 H         1 <0>         0.1391
     29 H8          6.4458   -3.6778   -2.4672 H         1 <0>         0.1463
     30 H9          4.4120    1.4008   -1.5138 H         1 <0>         0.1431
     31 H10         6.5214    2.1745   -2.5157 H         1 <0>         0.1428
     32 H11         8.1822    0.5380   -3.2999 H         1 <0>         0.1622
@<TRIPOS>BOND
     1    1    6 ar
     2    1    2 ar
     3    1   23 1
     4    2    3 ar
     5    2   24 1
     6    3    4 ar
     7    3   25 1
     8    4    5 ar
     9    5    6 ar
    10    5    7 1
    11    6   26 1
    12    7   12 2
    13    7    8 1
    14    8    9 2
    15    8   13 1
    16    9   10 1
    17    9   27 1
    18   10   11 1
    19   10   12 1
    20   13   18 ar
    21   13   14 ar
    22   14   15 ar
    23   14   28 1
    24   15   16 ar
    25   15   29 1
    26   16   22 ar
    27   16   17 ar
    28   17   18 ar
    29   17   19 ar
    30   19   20 ar
    31   19   30 1
    32   20   21 ar
    33   20   31 1
    34   21   22 ar
    35   21   32 1
@<TRIPOS>MOLECULE
CHEMBL183354__1
   32    35     0     0     0
SMALL
USER_CHARGES

@<TRIPOS>ATOM
      1 C1         -0.0167    1.3791    0.0096 C.ar      1 <0>        -0.0803
      2 C2          1.1938    2.0588    0.0017 C.ar      1 <0>        -0.1578
      3 C3          2.3757    1.3408   -0.0134 C.ar      1 <0>         0.0901
      4 N1          2.3675    0.0237   -0.0204 N.ar      1 <0>        -0.3819
      5 C4          1.2315   -0.6652   -0.0133 C.ar      1 <0>         0.1638
      6 C5          0.0021   -0.0041    0.0020 C.ar      1 <0>        -0.1546
      7 C6          1.2696   -2.1418   -0.0216 C.2       1 <0>         0.1736
      8 C7          2.2987   -2.9397   -0.5079 C.2       1 <0>        -0.1699
      9 C8          1.9143   -4.2793   -0.3152 C.2       1 <0>         0.0774
     10 N2          0.7360   -4.2959    0.2479 N.2       1 <0>        -0.2731
     11 H1         -0.5332   -2.7109    0.8563 H         1 <0>         0.4438
     12 N3          0.3061   -2.9796    0.4510 N.pl3     1 <0>        -0.4616
     13 C9          3.5632   -2.4679   -1.1160 C.ar      1 <0>         0.2346
     14 C10         4.5044   -3.4102   -1.5657 C.ar      1 <0>        -0.1466
     15 C11         5.6714   -2.9894   -2.1269 C.ar      1 <0>        -0.0458
     16 C12         5.8997   -1.6012   -2.2398 C.ar      1 <0>         0.0675
     17 C13         4.9105   -0.7042   -1.7670 C.ar      1 <0>         0.0865
     18 N4          3.7814   -1.1710   -1.2298 N.ar      1 <0>        -0.4101
     19 C14         5.1423    0.6811   -1.8816 C.ar      1 <0>        -0.0461
     20 C15         6.3149    1.0957   -2.4455 C.ar      1 <0>        -0.1626
     21 C16         7.2439    0.1573   -2.8893 C.ar      1 <0>         0.1254
     22 N5          7.0251   -1.1313   -2.7817 N.ar      1 <0>        -0.4645
     23 H2         -0.9523    1.9184    0.0259 H         1 <0>         0.1383
     24 H3          1.2124    3.1386    0.0070 H         1 <0>         0.1373
     25 H4          3.3186    1.8674   -0.0200 H         1 <0>         0.1559
     26 H5         -0.9212   -0.5644    0.0078 H         1 <0>         0.1298
     27 H6          2.4958   -5.1478   -0.5872 H         1 <0>         0.1952
     28 H7          4.3024   -4.4664   -1.4658 H         1 <0>         0.1426
     29 H8          6.4048   -3.7008   -2.4769 H         1 <0>         0.1472
     30 H9          4.4117    1.3960   -1.5329 H         1 <0>         0.1412
     31 H10         6.5217    2.1507   -2.5478 H         1 <0>         0.1424
     32 H11         8.1669    0.4995   -3.3337 H         1 <0>         0.1622
@<TRIPOS>BOND
     1    1    6 ar
     2    1    2 ar
     3    1   23 1
     4    2    3 ar
     5    2   24 1
     6    3    4 ar
     7    3   25 1
     8    4    5 ar
     9    5    6 ar
    10    5    7 1
    11    6   26 1
    12    7    8 2
    13    7   12 1
    14    8    9 1
    15    8   13 1
    16    9   10 2
    17    9   27 1
    18   10   12 1
    19   11   12 1
    20   13   18 ar
    21   13   14 ar
    22   14   15 ar
    23   14   28 1
    24   15   16 ar
    25   15   29 1
    26   16   22 ar
    27   16   17 ar
    28   17   18 ar
    29   17   19 ar
    30   19   20 ar
    31   19   30 1
    32   20   21 ar
    33   20   31 1
    34   21   22 ar
    35   21   32 1
@<TRIPOS>MOLECULE
CHEMBL609582
   37    40     0     0     0
SMALL
USER_CHARGES

@<TRIPOS>ATOM
      1 C1         -0.1884    1.4203    0.4158 C.3       1 <0>         0.0960
      2 N1         -0.0738   -0.0216    0.1835 N.pl3     1 <0>        -0.3920
      3 C2         -1.1207   -0.8679   -0.0997 C.2       1 <0>         0.2243
      4 C3         -0.6089   -2.1448   -0.2512 C.2       1 <0>        -0.2148
      5 C4          0.8383   -2.0472   -0.0437 C.2       1 <0>         0.5415
      6 O1          1.6392   -2.9629   -0.0953 O.2       1 <0>        -0.5314
      7 N2          1.1179   -0.7530    0.2089 N.am      1 <0>        -0.4152
      8 C5          2.4504   -0.2037    0.4713 C.3       1 <0>         0.0987
      9 C6         -1.3767   -3.3741   -0.5629 C.2       1 <0>        -0.0905
     10 C7         -1.5534   -4.5497    0.2974 C.2       1 <0>        -0.1974
     11 C8         -2.3191   -5.4074   -0.3981 C.2       1 <0>        -0.0360
     12 O2         -2.6174   -4.8621   -1.5869 O.3       1 <0>        -0.1814
     13 C9         -2.0673   -3.6429   -1.7019 C.2       1 <0>        -0.0257
     14 C10        -2.5390   -0.4825   -0.2200 C.ar      1 <0>        -0.0287
     15 C11        -2.8975    0.6262   -1.0105 C.ar      1 <0>        -0.0851
     16 C12        -4.1956    0.9996   -1.1361 C.ar      1 <0>        -0.0759
     17 C13        -5.2054    0.2775   -0.4722 C.ar      1 <0>         0.0877
     18 C14        -4.8580   -0.8417    0.3274 C.ar      1 <0>         0.0776
     19 C15        -3.5106   -1.2176    0.4413 C.ar      1 <0>        -0.0273
     20 N3         -5.8191   -1.5281    0.9568 N.ar      1 <0>        -0.4170
     21 C16        -7.0732   -1.1597    0.8284 C.ar      1 <0>         0.0800
     22 C17        -7.4151   -0.0580    0.0412 C.ar      1 <0>         0.0856
     23 N4         -6.4895    0.6324   -0.5857 N.ar      1 <0>        -0.4260
     24 H1          0.7997    1.8364    0.6123 H         1 <0>         0.0922
     25 H2         -0.6148    1.8977   -0.4665 H         1 <0>         0.0823
     26 H3         -0.8355    1.5997    1.2744 H         1 <0>         0.0830
     27 H4          2.6539   -0.2394    1.5415 H         1 <0>         0.0706
     28 H5          3.1975   -0.7929   -0.0605 H         1 <0>         0.1002
     29 H6          2.4913    0.8301    0.1280 H         1 <0>         0.0800
     30 H7         -1.1495   -4.6960    1.2883 H         1 <0>         0.1486
     31 H8         -2.6421   -6.3793   -0.0553 H         1 <0>         0.2023
     32 H9         -2.1562   -2.9879   -2.5560 H         1 <0>         0.1988
     33 H10        -2.1295    1.1865   -1.5229 H         1 <0>         0.1390
     34 H11        -4.4547    1.8523   -1.7461 H         1 <0>         0.1473
     35 H12        -3.2324   -2.0700    1.0432 H         1 <0>         0.1498
     36 H13        -7.8480   -1.7146    1.3365 H         1 <0>         0.1796
     37 H14        -8.4517    0.2302   -0.0526 H         1 <0>         0.1792
@<TRIPOS>BOND
     1    1    2 1
     2    1   24 1
     3    1   25 1
     4    1   26 1
     5    2    7 1
     6    2    3 1
     7    3    4 2
     8    3   14 1
     9    4    5 1
    10    4    9 1
    11    5    6 2
    12    5    7 am
    13    7    8 1
    14    8   27 1
    15    8   28 1
    16    8   29 1
    17    9   13 2
    18    9   10 1
    19   10   11 2
    20   10   30 1
    21   11   12 1
    22   11   31 1
    23   12   13 1
    24   13   32 1
    25   14   19 ar
    26   14   15 ar
    27   15   16 ar
    28   15   33 1
    29   16   17 ar
    30   16   34 1
    31   17   23 ar
    32   17   18 ar
    33   18   19 ar
    34   18   20 ar
    35   19   35 1
    36   20   21 ar
    37   21   22 ar
    38   21   36 1
    39   22   23 ar
    40   22   37 1
@<TRIPOS>MOLECULE
CHEMBL565422
   58    62     0     0     0
SMALL
USER_CHARGES

@<TRIPOS>ATOM
      1 C1         -0.0184    1.5028    0.0103 C.3       1 <0>        -0.0995
      2 C2          0.0021   -0.0041    0.0020 C.ar      1 <0>         0.1369
      3 C3          0.0056   -0.6792   -1.2045 C.ar      1 <0>        -0.1740
      4 C4          0.0249   -2.0673   -1.2086 C.ar      1 <0>        -0.0735
      5 C5          0.0401   -2.7315    0.0049 C.ar      1 <0>        -0.1506
      6 C6          0.0355   -1.9874    1.1847 C.ar      1 <0>         0.2093
      7 N1          0.0218   -0.6599    1.1446 N.ar      1 <0>        -0.4597
      8 C7          0.0510   -2.6824    2.4912 C.2       1 <0>         0.0606
      9 C8          0.5162   -2.1658    3.6880 C.2       1 <0>         0.0714
     10 N2          0.3364   -3.1527    4.6278 N.pl3     1 <0>        -0.5499
     11 C9         -0.2190   -4.2166    3.9948 C.2       1 <0>         0.1925
     12 N3         -0.3901   -3.9312    2.7346 N.2       1 <0>        -0.4442
     13 C10        -0.5869   -5.5236    4.6488 C.3       1 <0>         0.2118
     14 N4         -2.0010   -5.4975    5.0308 N.pl3     1 <0>        -0.7343
     15 C11        -2.5728   -6.6004    5.6553 C.ar      1 <0>         0.2469
     16 C12        -1.7988   -7.7264    5.9221 C.ar      1 <0>        -0.2090
     17 C13        -2.3618   -8.8195    6.5400 C.ar      1 <0>        -0.0051
     18 C14        -3.7125   -8.7984    6.9000 C.ar      1 <0>        -0.2036
     19 C15        -4.4870   -7.6662    6.6307 C.ar      1 <0>        -0.0333
     20 C16        -3.9167   -6.5741    6.0176 C.ar      1 <0>        -0.2020
     21 C17        -4.3193   -9.9687    7.5621 C.2       1 <0>         0.5678
     22 O1         -3.6445  -10.9530    7.7954 O.2       1 <0>        -0.5484
     23 N5         -5.6216   -9.9469    7.9086 N.am      1 <0>        -0.8552
     24 C18         1.0905   -0.8242    3.9106 C.2       1 <0>         0.0211
     25 C19         2.4157   -0.6752    4.0731 C.2       1 <0>        -0.1362
     26 C20         3.0130    0.6891    4.2736 C.3       1 <0>         0.0956
     27 C21         2.0517    1.6039    5.0203 C.3       1 <0>         0.1098
     28 C22         0.6610    1.4996    4.4593 C.2       1 <0>        -0.1232
     29 C23         0.2118    0.3632    3.9496 C.2       1 <0>        -0.0809
     30 N6          2.5072    2.9880    4.9622 N.2       1 <0>        -0.5111
     31 C24         3.3866    3.4102    4.1566 C.2       1 <0>         0.1645
     32 C25         4.0869    2.5352    3.1572 C.3       1 <0>         0.0270
     33 N7          3.3357    1.2865    2.9688 N.3       1 <0>        -0.6654
     34 H1          1.0042    1.8801    0.0026 H         1 <0>         0.0793
     35 H2         -0.5455    1.8639   -0.8728 H         1 <0>         0.0714
     36 H3         -0.5286    1.8543    0.9071 H         1 <0>         0.0749
     37 H4         -0.0069   -0.1317   -2.1353 H         1 <0>         0.1333
     38 H5          0.0276   -2.6165   -2.1385 H         1 <0>         0.1353
     39 H6          0.0549   -3.8109    0.0382 H         1 <0>         0.1371
     40 H7         -0.4145   -6.3412    3.9489 H         1 <0>         0.0994
     41 H8          0.0269   -5.6705    5.5375 H         1 <0>         0.0823
     42 H9         -2.5383   -4.7110    4.8480 H         1 <0>         0.4060
     43 H10        -0.7555   -7.7423    5.6434 H         1 <0>         0.1289
     44 H11        -1.7610   -9.6929    6.7464 H         1 <0>         0.1361
     45 H12        -5.5308   -7.6471    6.9073 H         1 <0>         0.1255
     46 H13        -4.5134   -5.6973    5.8137 H         1 <0>         0.1271
     47 H14        -6.1599   -9.1617    7.7225 H         1 <0>         0.3994
     48 H15        -6.0206  -10.7164    8.3440 H         1 <0>         0.4040
     49 H16         3.0574   -1.5438    4.0600 H         1 <0>         0.1161
     50 H17         3.9263    0.5976    4.8614 H         1 <0>         0.0512
     51 H18         2.0282    1.3042    6.0680 H         1 <0>         0.0997
     52 H19         0.0182    2.3675    4.4687 H         1 <0>         0.1218
     53 H20        -0.7963    0.3021    3.5669 H         1 <0>         0.1244
     54 H21         4.1601    3.0606    2.2050 H         1 <0>         0.1037
     55 H22         3.6479    4.4576    4.1894 H         1 <0>         0.1552
     56 H23         5.0887    2.3033    3.5186 H         1 <0>         0.0559
     57 H24         3.8505    0.6384    2.3918 H         1 <0>         0.3506
     58 H25         0.5646   -3.0987    5.5690 H         1 <0>         0.4252
@<TRIPOS>BOND
     1    1    2 1
     2    1   34 1
     3    1   35 1
     4    1   36 1
     5    2    7 ar
     6    2    3 ar
     7    3    4 ar
     8    3   37 1
     9    4    5 ar
    10    4   38 1
    11    5    6 ar
    12    5   39 1
    13    6    7 ar
    14    6    8 1
    15    8   12 1
    16    8    9 2
    17    9   10 1
    18    9   24 1
    19   10   11 1
    20   10   58 1
    21   11   12 2
    22   11   13 1
    23   13   14 1
    24   13   40 1
    25   13   41 1
    26   14   15 1
    27   14   42 1
    28   15   20 ar
    29   15   16 ar
    30   16   17 ar
    31   16   43 1
    32   17   18 ar
    33   17   44 1
    34   18   19 ar
    35   18   21 1
    36   19   20 ar
    37   19   45 1
    38   20   46 1
    39   21   22 2
    40   21   23 am
    41   23   47 1
    42   23   48 1
    43   24   29 1
    44   24   25 2
    45   25   26 1
    46   25   49 1
    47   26   33 1
    48   26   27 1
    49   26   50 1
    50   27   28 1
    51   27   51 1
    52   27   30 1
    53   28   29 2
    54   28   52 1
    55   29   53 1
    56   30   31 2
    57   31   32 1
    58   31   55 1
    59   32   33 1
    60   32   56 1
    61   32   54 1
    62   33   57 1
@<TRIPOS>MOLECULE
CHEMBL565422__1
   58    62     0     0     0
SMALL
USER_CHARGES

@<TRIPOS>ATOM
      1 C1         -0.1665    1.6387    0.2087 C.3       1 <0>        -0.1065
      2 C2         -0.2219    0.1341    0.1455 C.ar      1 <0>         0.1425
      3 C3         -0.3839   -0.4914   -1.0771 C.ar      1 <0>        -0.1702
      4 C4         -0.4342   -1.8778   -1.1329 C.ar      1 <0>        -0.0636
      5 C5         -0.3194   -2.5913    0.0464 C.ar      1 <0>        -0.1755
      6 C6         -0.1577   -1.8957    1.2467 C.ar      1 <0>         0.2025
      7 N1         -0.1098   -0.5670    1.2550 N.ar      1 <0>        -0.4539
      8 C7         -0.0342   -2.6409    2.5140 C.2       1 <0>         0.0350
      9 C8          0.5986   -2.2171    3.6696 C.2       1 <0>         0.0993
     10 N2          0.4752   -3.2014    4.5788 N.2       1 <0>        -0.4532
     11 C9         -0.1886   -4.1958    4.0584 C.2       1 <0>         0.2049
     12 N3         -0.5304   -3.8955    2.7874 N.pl3     1 <0>        -0.5458
     13 H1         -1.0310   -4.4605    2.1783 H         1 <0>         0.4241
     14 C10        -0.5281   -5.4806    4.7691 C.3       1 <0>         0.2097
     15 N4          0.5967   -6.4125    4.6570 N.pl3     1 <0>        -0.7341
     16 C11         0.5159   -7.6729    5.2387 C.ar      1 <0>         0.2465
     17 C12        -0.6368   -8.0498    5.9224 C.ar      1 <0>        -0.2087
     18 C13        -0.7198   -9.2964    6.4992 C.ar      1 <0>        -0.0051
     19 C14         0.3549  -10.1847    6.3980 C.ar      1 <0>        -0.2031
     20 C15         1.5110   -9.8033    5.7108 C.ar      1 <0>        -0.0334
     21 C16         1.5857   -8.5574    5.1314 C.ar      1 <0>        -0.2017
     22 C17         0.2693  -11.5217    7.0156 C.2       1 <0>         0.5677
     23 O1         -0.7367  -11.8520    7.6134 O.2       1 <0>        -0.5480
     24 N5          1.3063  -12.3770    6.9173 N.am      1 <0>        -0.8552
     25 C18         1.2853   -0.9199    3.8685 C.2       1 <0>         0.0055
     26 C19         0.8678   -0.0772    4.8238 C.2       1 <0>        -0.1083
     27 C20         1.5394    1.2543    5.0187 C.3       1 <0>         0.0719
     28 C21         3.0197    1.1727    4.6725 C.3       1 <0>         0.0893
     29 C22         3.2368    0.4355    3.3820 C.2       1 <0>        -0.1356
     30 C23         2.4364   -0.5527    3.0193 C.2       1 <0>        -0.0814
     31 N6          3.7364    0.4915    5.7614 N.3       1 <0>        -0.6682
     32 C24         3.6873    1.3046    6.9845 C.3       1 <0>         0.0272
     33 C25         2.2742    1.7315    7.2601 C.2       1 <0>         0.1269
     34 N7          1.3540    1.7070    6.3923 N.2       1 <0>        -0.5121
     35 H2          0.8665    1.9692    0.1005 H         1 <0>         0.0817
     36 H3         -0.7686    2.0586   -0.5970 H         1 <0>         0.0773
     37 H4         -0.5574    1.9767    1.1685 H         1 <0>         0.0797
     38 H5         -0.4710    0.0936   -1.9808 H         1 <0>         0.1388
     39 H6         -0.5605   -2.3879   -2.0764 H         1 <0>         0.1392
     40 H7         -0.3547   -3.6707    0.0392 H         1 <0>         0.1284
     41 H8         -0.7246   -5.2730    5.8209 H         1 <0>         0.1006
     42 H9         -1.4140   -5.9241    4.3146 H         1 <0>         0.0829
     43 H10         1.3978   -6.1504    4.1770 H         1 <0>         0.4059
     44 H11        -1.4665   -7.3629    6.0005 H         1 <0>         0.1289
     45 H12        -1.6141   -9.5881    7.0298 H         1 <0>         0.1363
     46 H13         2.3430  -10.4872    5.6313 H         1 <0>         0.1257
     47 H14         2.4767   -8.2639    4.5963 H         1 <0>         0.1271
     48 H15         2.1088  -12.1135    6.4404 H         1 <0>         0.3993
     49 H16         1.2500  -13.2561    7.3233 H         1 <0>         0.4040
     50 H17         0.0408   -0.3570    5.4595 H         1 <0>         0.1205
     51 H18         1.0668    1.9830    4.3601 H         1 <0>         0.1083
     52 H19         3.4176    2.1828    4.5754 H         1 <0>         0.0914
     53 H20         4.0617    0.7140    2.7430 H         1 <0>         0.1224
     54 H21         2.6229   -1.0879    2.1000 H         1 <0>         0.1119
     55 H22         3.3568   -0.4291    5.9238 H         1 <0>         0.3470
     56 H23         4.0582    0.7173    7.8245 H         1 <0>         0.1016
     57 H24         2.0301    2.0784    8.2533 H         1 <0>         0.1520
     58 H25         4.3124    2.1883    6.8569 H         1 <0>         0.0997
@<TRIPOS>BOND
     1    1    2 1
     2    1   35 1
     3    1   36 1
     4    1   37 1
     5    2    7 ar
     6    2    3 ar
     7    3    4 ar
     8    3   38 1
     9    4    5 ar
    10    4   39 1
    11    5    6 ar
    12    5   40 1
    13    6    7 ar
    14    6    8 1
    15    8   12 1
    16    8    9 2
    17    9   10 1
    18    9   25 1
    19   10   11 2
    20   11   12 1
    21   11   14 1
    22   12   13 1
    23   14   15 1
    24   14   41 1
    25   14   42 1
    26   15   16 1
    27   15   43 1
    28   16   21 ar
    29   16   17 ar
    30   17   18 ar
    31   17   44 1
    32   18   19 ar
    33   18   45 1
    34   19   20 ar
    35   19   22 1
    36   20   21 ar
    37   20   46 1
    38   21   47 1
    39   22   23 2
    40   22   24 am
    41   24   48 1
    42   24   49 1
    43   25   30 1
    44   25   26 2
    45   26   27 1
    46   26   50 1
    47   27   28 1
    48   27   51 1
    49   27   34 1
    50   28   29 1
    51   28   31 1
    52   28   52 1
    53   29   30 2
    54   29   53 1
    55   30   54 1
    56   31   55 1
    57   31   32 1
    58   32   56 1
    59   32   58 1
    60   32   33 1
    61   33   57 1
    62   33   34 2
@<TRIPOS>MOLECULE
CHEMBL565422__2
   58    62     0     0     0
SMALL
USER_CHARGES

@<TRIPOS>ATOM
      1 C1         -0.1244    1.6204    0.1792 C.3       1 <0>        -0.1064
      2 C2         -0.1809    0.1155    0.1239 C.ar      1 <0>         0.1436
      3 C3         -0.3305   -0.5166   -1.0969 C.ar      1 <0>        -0.1703
      4 C4         -0.3818   -1.9033   -1.1455 C.ar      1 <0>        -0.0640
      5 C5         -0.2808   -2.6103    0.0389 C.ar      1 <0>        -0.1758
      6 C6         -0.1314   -1.9082    1.2370 C.ar      1 <0>         0.2030
      7 N1         -0.0818   -0.5795    1.2384 N.ar      1 <0>        -0.4522
      8 C7         -0.0226   -2.6464    2.5097 C.2       1 <0>         0.0368
      9 C8          0.5986   -2.2171    3.6696 C.2       1 <0>         0.0948
     10 N2          0.4639   -3.1961    4.5830 N.2       1 <0>        -0.4511
     11 C9         -0.1960   -4.1923    4.0611 C.2       1 <0>         0.2030
     12 N3         -0.5237   -3.8986    2.7848 N.pl3     1 <0>        -0.5464
     13 H1         -1.0188   -4.4663    2.1737 H         1 <0>         0.4238
     14 C10        -0.5452   -5.4725    4.7753 C.3       1 <0>         0.2100
     15 N4          0.5792   -6.4069    4.6806 N.pl3     1 <0>        -0.7341
     16 C11         0.4901   -7.6638    5.2685 C.ar      1 <0>         0.2468
     17 C12        -0.6704   -8.0350    5.9419 C.ar      1 <0>        -0.2088
     18 C13        -0.7617   -9.2782    6.5248 C.ar      1 <0>        -0.0051
     19 C14         0.3126  -10.1688    6.4401 C.ar      1 <0>        -0.2033
     20 C15         1.4765   -9.7931    5.7632 C.ar      1 <0>        -0.0334
     21 C16         1.5595   -8.5506    5.1775 C.ar      1 <0>        -0.2018
     22 C17         0.2182  -11.5021    7.0643 C.2       1 <0>         0.5677
     23 O1         -0.7947  -11.8275    7.6532 O.2       1 <0>        -0.5482
     24 N5          1.2547  -12.3596    6.9818 N.am      1 <0>        -0.8552
     25 C18         1.2853   -0.9199    3.8685 C.2       1 <0>         0.0367
     26 C19         0.8683   -0.0764    4.8238 C.2       1 <0>        -0.1320
     27 C20         1.5741    1.2305    5.0523 C.3       1 <0>         0.0959
     28 C21         2.1394    1.7827    3.7507 C.3       1 <0>         0.1133
     29 C22         2.8422    0.7083    2.9687 C.2       1 <0>        -0.1122
     30 C23         2.4365   -0.5518    3.0197 C.2       1 <0>        -0.0962
     31 N6          3.0570    2.8852    4.0137 N.2       1 <0>        -0.5132
     32 C24         3.5504    3.1392    5.1506 C.2       1 <0>         0.1625
     33 C25         3.2457    2.3416    6.3858 C.3       1 <0>         0.0267
     34 N7          2.6700    1.0414    6.0150 N.3       1 <0>        -0.6719
     35 H2          0.9102    1.9490    0.0804 H         1 <0>         0.0831
     36 H3         -0.7171    2.0365   -0.6354 H         1 <0>         0.0770
     37 H4         -0.5253    1.9642    1.1327 H         1 <0>         0.0782
     38 H5         -0.4070    0.0633   -2.0048 H         1 <0>         0.1384
     39 H6         -0.4985   -2.4185   -2.0875 H         1 <0>         0.1387
     40 H7         -0.3174   -3.6897    0.0374 H         1 <0>         0.1279
     41 H8         -0.7525   -5.2587    5.8239 H         1 <0>         0.1005
     42 H9         -1.4269   -5.9171    4.3140 H         1 <0>         0.0826
     43 H10         1.3858   -6.1487    4.2077 H         1 <0>         0.4060
     44 H11        -1.4998   -7.3464    6.0073 H         1 <0>         0.1289
     45 H12        -1.6621   -9.5654    7.0474 H         1 <0>         0.1362
     46 H13         2.3082  -10.4788    5.6963 H         1 <0>         0.1256
     47 H14         2.4566   -8.2615    4.6503 H         1 <0>         0.1272
     48 H15         2.0627  -12.1001    6.5120 H         1 <0>         0.3994
     49 H16         1.1927  -13.2364    7.3922 H         1 <0>         0.4040
     50 H17         0.0171   -0.3385    5.4345 H         1 <0>         0.1166
     51 H18         0.8656    1.9550    5.4538 H         1 <0>         0.0501
     52 H19         1.3165    2.1696    3.1496 H         1 <0>         0.1037
     53 H20         3.6951    0.9668    2.3588 H         1 <0>         0.1169
     54 H21         2.9429   -1.3081    2.4385 H         1 <0>         0.1111
     55 H22         4.1649    2.1825    6.9496 H         1 <0>         0.1025
     56 H23         4.2277    3.9760    5.2376 H         1 <0>         0.1541
     57 H24         2.5344    2.8895    7.0039 H         1 <0>         0.0562
     58 H25         2.3518    0.5408    6.8312 H         1 <0>         0.3525
@<TRIPOS>BOND
     1    1    2 1
     2    1   35 1
     3    1   36 1
     4    1   37 1
     5    2    7 ar
     6    2    3 ar
     7    3    4 ar
     8    3   38 1
     9    4    5 ar
    10    4   39 1
    11    5    6 ar
    12    5   40 1
    13    6    7 ar
    14    6    8 1
    15    8   12 1
    16    8    9 2
    17    9   10 1
    18    9   25 1
    19   10   11 2
    20   11   12 1
    21   11   14 1
    22   12   13 1
    23   14   15 1
    24   14   41 1
    25   14   42 1
    26   15   16 1
    27   15   43 1
    28   16   21 ar
    29   16   17 ar
    30   17   18 ar
    31   17   44 1
    32   18   19 ar
    33   18   45 1
    34   19   20 ar
    35   19   22 1
    36   20   21 ar
    37   20   46 1
    38   21   47 1
    39   22   23 2
    40   22   24 am
    41   24   48 1
    42   24   49 1
    43   25   30 1
    44   25   26 2
    45   26   27 1
    46   26   50 1
    47   27   34 1
    48   27   28 1
    49   27   51 1
    50   28   29 1
    51   28   52 1
    52   28   31 1
    53   29   30 2
    54   29   53 1
    55   30   54 1
    56   31   32 2
    57   32   33 1
    58   32   56 1
    59   33   34 1
    60   33   57 1
    61   33   55 1
    62   34   58 1
@<TRIPOS>MOLECULE
CHEMBL565422__3
   58    62     0     0     0
SMALL
USER_CHARGES

@<TRIPOS>ATOM
      1 C1         -0.0184    1.5028    0.0103 C.3       1 <0>        -0.1025
      2 C2          0.0021   -0.0041    0.0020 C.ar      1 <0>         0.1328
      3 C3          0.0056   -0.6792   -1.2045 C.ar      1 <0>        -0.1728
      4 C4          0.0249   -2.0673   -1.2086 C.ar      1 <0>        -0.0729
      5 C5          0.0401   -2.7315    0.0049 C.ar      1 <0>        -0.1494
      6 C6          0.0355   -1.9874    1.1847 C.ar      1 <0>         0.2100
      7 N1          0.0218   -0.6599    1.1446 N.ar      1 <0>        -0.4620
      8 C7          0.0510   -2.6824    2.4912 C.2       1 <0>         0.0615
      9 C8          0.5162   -2.1658    3.6880 C.2       1 <0>         0.0756
     10 N2          0.3364   -3.1527    4.6278 N.pl3     1 <0>        -0.5506
     11 C9         -0.2190   -4.2166    3.9948 C.2       1 <0>         0.1924
     12 N3         -0.3901   -3.9312    2.7346 N.2       1 <0>        -0.4441
     13 C10        -0.5869   -5.5236    4.6488 C.3       1 <0>         0.2118
     14 N4         -2.0010   -5.4975    5.0308 N.pl3     1 <0>        -0.7343
     15 C11        -2.5728   -6.6004    5.6553 C.ar      1 <0>         0.2468
     16 C12        -1.7988   -7.7264    5.9221 C.ar      1 <0>        -0.2089
     17 C13        -2.3618   -8.8195    6.5400 C.ar      1 <0>        -0.0051
     18 C14        -3.7125   -8.7984    6.9000 C.ar      1 <0>        -0.2035
     19 C15        -4.4870   -7.6662    6.6307 C.ar      1 <0>        -0.0333
     20 C16        -3.9167   -6.5741    6.0176 C.ar      1 <0>        -0.2022
     21 C17        -4.3193   -9.9687    7.5621 C.2       1 <0>         0.5677
     22 O1         -3.6445  -10.9530    7.7954 O.2       1 <0>        -0.5483
     23 N5         -5.6216   -9.9469    7.9086 N.am      1 <0>        -0.8552
     24 C18         1.0905   -0.8242    3.9106 C.2       1 <0>        -0.0062
     25 C19         2.4249   -0.6732    4.0744 C.2       1 <0>        -0.1209
     26 C20         2.9556    0.7170    4.2836 C.3       1 <0>         0.0889
     27 C21         2.1782    1.6797    3.3810 C.3       1 <0>         0.1054
     28 C22         0.7150    1.5726    3.6981 C.2       1 <0>        -0.1137
     29 C23         0.2106    0.3666    3.9499 C.2       1 <0>        -0.0918
     30 N6          2.7048    3.0242    3.5437 N.2       1 <0>        -0.5013
     31 C24         3.8869    3.2370    3.9586 C.2       1 <0>         0.1503
     32 C25         4.8613    2.1657    4.3476 C.3       1 <0>         0.0284
     33 N7          4.3778    0.8336    3.9485 N.3       1 <0>        -0.6729
     34 H1          1.0042    1.8801    0.0026 H         1 <0>         0.0763
     35 H2         -0.5455    1.8639   -0.8728 H         1 <0>         0.0742
     36 H3         -0.5286    1.8543    0.9071 H         1 <0>         0.0774
     37 H4         -0.0069   -0.1317   -2.1353 H         1 <0>         0.1340
     38 H5          0.0276   -2.6165   -2.1385 H         1 <0>         0.1361
     39 H6          0.0549   -3.8109    0.0382 H         1 <0>         0.1379
     40 H7         -0.4145   -6.3412    3.9489 H         1 <0>         0.0995
     41 H8          0.0269   -5.6705    5.5375 H         1 <0>         0.0822
     42 H9         -2.5383   -4.7110    4.8480 H         1 <0>         0.4059
     43 H10        -0.7555   -7.7423    5.6434 H         1 <0>         0.1290
     44 H11        -1.7610   -9.6929    6.7464 H         1 <0>         0.1362
     45 H12        -5.5308   -7.6471    6.9073 H         1 <0>         0.1255
     46 H13        -4.5134   -5.6973    5.8137 H         1 <0>         0.1270
     47 H14        -6.1599   -9.1617    7.7225 H         1 <0>         0.3994
     48 H15        -6.0206  -10.7164    8.3440 H         1 <0>         0.4040
     49 H16         3.0880   -1.5254    4.0557 H         1 <0>         0.1253
     50 H17         2.8047    1.0082    5.3231 H         1 <0>         0.0562
     51 H18         2.3323    1.3842    2.3432 H         1 <0>         0.1054
     52 H19         0.0871    2.4511    3.7177 H         1 <0>         0.1310
     53 H20        -0.8376    0.2583    4.1862 H         1 <0>         0.1198
     54 H21         5.8174    2.3589    3.8612 H         1 <0>         0.1057
     55 H22         4.2135    4.2635    4.0362 H         1 <0>         0.1557
     56 H23         5.0012    2.1857    5.4284 H         1 <0>         0.0606
     57 H24         4.9152    0.1053    4.3945 H         1 <0>         0.3512
     58 H25         0.5646   -3.0987    5.5690 H         1 <0>         0.4248
@<TRIPOS>BOND
     1    1    2 1
     2    1   34 1
     3    1   35 1
     4    1   36 1
     5    2    7 ar
     6    2    3 ar
     7    3    4 ar
     8    3   37 1
     9    4    5 ar
    10    4   38 1
    11    5    6 ar
    12    5   39 1
    13    6    7 ar
    14    6    8 1
    15    8   12 1
    16    8    9 2
    17    9   10 1
    18    9   24 1
    19   10   11 1
    20   10   58 1
    21   11   12 2
    22   11   13 1
    23   13   14 1
    24   13   40 1
    25   13   41 1
    26   14   15 1
    27   14   42 1
    28   15   20 ar
    29   15   16 ar
    30   16   17 ar
    31   16   43 1
    32   17   18 ar
    33   17   44 1
    34   18   19 ar
    35   18   21 1
    36   19   20 ar
    37   19   45 1
    38   20   46 1
    39   21   22 2
    40   21   23 am
    41   23   47 1
    42   23   48 1
    43   24   29 1
    44   24   25 2
    45   25   26 1
    46   25   49 1
    47   26   33 1
    48   26   27 1
    49   26   50 1
    50   27   28 1
    51   27   51 1
    52   27   30 1
    53   28   29 2
    54   28   52 1
    55   29   53 1
    56   30   31 2
    57   31   32 1
    58   31   55 1
    59   32   33 1
    60   32   56 1
    61   32   54 1
    62   33   57 1
@<TRIPOS>MOLECULE
CHEMBL565422__4
   58    62     0     0     0
SMALL
USER_CHARGES

@<TRIPOS>ATOM
      1 C1         -0.2370    1.6686    0.2589 C.3       1 <0>        -0.1066
      2 C2         -0.2898    0.1645    0.1826 C.ar      1 <0>         0.1429
      3 C3         -0.4720   -0.4500   -1.0427 C.ar      1 <0>        -0.1707
      4 C4         -0.5198   -1.8360   -1.1105 C.ar      1 <0>        -0.0638
      5 C5         -0.3824   -2.5601    0.0598 C.ar      1 <0>        -0.1762
      6 C6         -0.2012   -1.8753    1.2635 C.ar      1 <0>         0.2032
      7 N1         -0.1563   -0.5466    1.2834 N.ar      1 <0>        -0.4537
      8 C7         -0.0534   -2.6319    2.5214 C.2       1 <0>         0.0333
      9 C8          0.5986   -2.2171    3.6696 C.2       1 <0>         0.1035
     10 N2          0.4939   -3.2102    4.5716 N.2       1 <0>        -0.4532
     11 C9         -0.1765   -4.2015    4.0537 C.2       1 <0>         0.2040
     12 N3         -0.5413   -3.8903    2.7917 N.pl3     1 <0>        -0.5461
     13 H1         -1.0512   -4.4511    2.1863 H         1 <0>         0.4238
     14 C10        -0.5000   -5.4938    4.7582 C.3       1 <0>         0.2096
     15 N4          0.6251   -6.4215    4.6176 N.pl3     1 <0>        -0.7342
     16 C11         0.5579   -7.6875    5.1889 C.ar      1 <0>         0.2467
     17 C12        -0.5816   -8.0739    5.8892 C.ar      1 <0>        -0.2085
     18 C13        -0.6512   -9.3261    6.4557 C.ar      1 <0>        -0.0050
     19 C14         0.4239  -10.2104    6.3273 C.ar      1 <0>        -0.2033
     20 C15         1.5667   -9.8194    5.6235 C.ar      1 <0>        -0.0335
     21 C16         1.6279   -8.5679    5.0544 C.ar      1 <0>        -0.2021
     22 C17         0.3528  -11.5533    6.9338 C.2       1 <0>         0.5677
     23 O1         -0.6417  -11.8920    7.5461 O.2       1 <0>        -0.5480
     24 N5          1.3900  -12.4048    6.8092 N.am      1 <0>        -0.8552
     25 C18         1.2853   -0.9199    3.8685 C.2       1 <0>        -0.0095
     26 C19         0.8664   -0.0693    4.8303 C.2       1 <0>        -0.0882
     27 C20         1.6091    1.2255    4.9969 C.3       1 <0>         0.1081
     28 C21         3.1060    0.9639    4.8040 C.3       1 <0>         0.0869
     29 C22         3.3209    0.3500    3.4506 C.2       1 <0>        -0.1491
     30 C23         2.4393   -0.5495    3.0186 C.2       1 <0>        -0.0822
     31 N6          3.8114    2.2385    4.9652 N.3       1 <0>        -0.6738
     32 C24         3.7038    2.6771    6.3664 C.3       1 <0>         0.0280
     33 C25         2.3097    2.4952    6.8878 C.2       1 <0>         0.1518
     34 N7          1.3923    1.8489    6.2915 N.2       1 <0>        -0.5021
     35 H2          0.7932    2.0027    0.1354 H         1 <0>         0.0818
     36 H3         -0.8543    2.0944   -0.5322 H         1 <0>         0.0771
     37 H4         -0.6116    1.9966    1.2285 H         1 <0>         0.0800
     38 H5         -0.5765    0.1430   -1.9392 H         1 <0>         0.1387
     39 H6         -0.6616   -2.3377   -2.0564 H         1 <0>         0.1389
     40 H7         -0.4152   -3.6395    0.0432 H         1 <0>         0.1283
     41 H8         -0.6784   -5.2966    5.8152 H         1 <0>         0.1008
     42 H9         -1.3926   -5.9355    4.3152 H         1 <0>         0.0830
     43 H10         1.4169   -6.1527    4.1261 H         1 <0>         0.4056
     44 H11        -1.4116   -7.3901    5.9883 H         1 <0>         0.1292
     45 H12        -1.5352   -9.6251    6.9991 H         1 <0>         0.1364
     46 H13         2.3990  -10.5002    5.5229 H         1 <0>         0.1255
     47 H14         2.5085   -8.2670    4.5065 H         1 <0>         0.1269
     48 H15         2.1833  -12.1346    6.3207 H         1 <0>         0.3993
     49 H16         1.3432  -13.2878    7.2079 H         1 <0>         0.4040
     50 H17         0.0233   -0.3125    5.4599 H         1 <0>         0.1290
     51 H18         1.2747    1.9220    4.2280 H         1 <0>         0.1068
     52 H19         3.4523    0.2725    5.5722 H         1 <0>         0.0530
     53 H20         4.1711    0.6279    2.8453 H         1 <0>         0.1266
     54 H21         2.5651   -1.0049    2.0474 H         1 <0>         0.1135
     55 H22         4.7773    2.1551    4.6856 H         1 <0>         0.3511
     56 H23         4.3924    2.0933    6.9772 H         1 <0>         0.0601
     57 H24         2.0678    2.9456    7.8391 H         1 <0>         0.1552
     58 H25         3.9739    3.7310    6.4324 H         1 <0>         0.1046
@<TRIPOS>BOND
     1    1    2 1
     2    1   35 1
     3    1   36 1
     4    1   37 1
     5    2    7 ar
     6    2    3 ar
     7    3    4 ar
     8    3   38 1
     9    4    5 ar
    10    4   39 1
    11    5    6 ar
    12    5   40 1
    13    6    7 ar
    14    6    8 1
    15    8   12 1
    16    8    9 2
    17    9   10 1
    18    9   25 1
    19   10   11 2
    20   11   12 1
    21   11   14 1
    22   12   13 1
    23   14   15 1
    24   14   41 1
    25   14   42 1
    26   15   16 1
    27   15   43 1
    28   16   21 ar
    29   16   17 ar
    30   17   18 ar
    31   17   44 1
    32   18   19 ar
    33   18   45 1
    34   19   20 ar
    35   19   22 1
    36   20   21 ar
    37   20   46 1
    38   21   47 1
    39   22   23 2
    40   22   24 am
    41   24   48 1
    42   24   49 1
    43   25   30 1
    44   25   26 2
    45   26   27 1
    46   26   50 1
    47   27   28 1
    48   27   51 1
    49   27   34 1
    50   28   29 1
    51   28   31 1
    52   28   52 1
    53   29   30 2
    54   29   53 1
    55   30   54 1
    56   31   55 1
    57   31   32 1
    58   32   56 1
    59   32   58 1
    60   32   33 1
    61   33   57 1
    62   33   34 2
@<TRIPOS>MOLECULE
CHEMBL565422__5
   58    62     0     0     0
SMALL
USER_CHARGES

@<TRIPOS>ATOM
      1 C1         -0.2374    1.6688    0.2592 C.3       1 <0>        -0.1057
      2 C2         -0.2902    0.1647    0.1829 C.ar      1 <0>         0.1418
      3 C3         -0.4725   -0.4498   -1.0425 C.ar      1 <0>        -0.1704
      4 C4         -0.5204   -1.8357   -1.1104 C.ar      1 <0>        -0.0634
      5 C5         -0.3828   -2.5599    0.0599 C.ar      1 <0>        -0.1754
      6 C6         -0.2014   -1.8752    1.2637 C.ar      1 <0>         0.2033
      7 N1         -0.1566   -0.5465    1.2836 N.ar      1 <0>        -0.4548
      8 C7         -0.0535   -2.6319    2.5215 C.2       1 <0>         0.0332
      9 C8          0.5986   -2.2171    3.6696 C.2       1 <0>         0.1014
     10 N2          0.4940   -3.2102    4.5715 N.2       1 <0>        -0.4514
     11 C9         -0.1764   -4.2015    4.0536 C.2       1 <0>         0.2045
     12 N3         -0.5414   -3.8903    2.7917 N.pl3     1 <0>        -0.5461
     13 H1         -1.0513   -4.4510    2.1863 H         1 <0>         0.4238
     14 C10        -0.4998   -5.4939    4.7581 C.3       1 <0>         0.2097
     15 N4          0.6253   -6.4216    4.6174 N.pl3     1 <0>        -0.7343
     16 C11         0.5581   -7.6876    5.1885 C.ar      1 <0>         0.2467
     17 C12        -0.5812   -8.0741    5.8890 C.ar      1 <0>        -0.2087
     18 C13        -0.6507   -9.3263    6.4554 C.ar      1 <0>        -0.0051
     19 C14         0.4243  -10.2106    6.3269 C.ar      1 <0>        -0.2032
     20 C15         1.5670   -9.8195    5.6229 C.ar      1 <0>        -0.0334
     21 C16         1.6281   -8.5680    5.0539 C.ar      1 <0>        -0.2018
     22 C17         0.3533  -11.5535    6.9332 C.2       1 <0>         0.5677
     23 O1         -0.6411  -11.8922    7.5456 O.2       1 <0>        -0.5482
     24 N5          1.3905  -12.4050    6.8085 N.am      1 <0>        -0.8552
     25 C18         1.2853   -0.9199    3.8685 C.2       1 <0>         0.0059
     26 C19         0.8661   -0.0698    4.8303 C.2       1 <0>        -0.1106
     27 C20         1.6076    1.2265    4.9969 C.3       1 <0>         0.0921
     28 C21         3.1041    0.9639    4.8029 C.3       1 <0>         0.1024
     29 C22         3.3203    0.3502    3.4501 C.2       1 <0>        -0.1270
     30 C23         2.4392   -0.5499    3.0183 C.2       1 <0>        -0.0974
     31 N6          3.8396    2.2020    4.9968 N.2       1 <0>        -0.5028
     32 C24         3.3696    3.1616    5.6846 C.2       1 <0>         0.1512
     33 C25         2.0254    3.1582    6.3489 C.3       1 <0>         0.0286
     34 N7          1.4217    1.8156    6.3261 N.3       1 <0>        -0.6731
     35 H2          0.7927    2.0029    0.1357 H         1 <0>         0.0814
     36 H3         -0.8548    2.0946   -0.5317 H         1 <0>         0.0775
     37 H4         -0.6120    1.9968    1.2289 H         1 <0>         0.0777
     38 H5         -0.5772    0.1434   -1.9390 H         1 <0>         0.1388
     39 H6         -0.6622   -2.3373   -2.0562 H         1 <0>         0.1394
     40 H7         -0.4156   -3.6393    0.0432 H         1 <0>         0.1288
     41 H8         -0.6781   -5.2967    5.8152 H         1 <0>         0.1010
     42 H9         -1.3925   -5.9356    4.3152 H         1 <0>         0.0828
     43 H10         1.4171   -6.1527    4.1258 H         1 <0>         0.4060
     44 H11        -1.4113   -7.3903    5.9882 H         1 <0>         0.1290
     45 H12        -1.5347   -9.6254    6.9989 H         1 <0>         0.1362
     46 H13         2.3993  -10.5003    5.5222 H         1 <0>         0.1256
     47 H14         2.5087   -8.2670    4.5059 H         1 <0>         0.1271
     48 H15         2.1838  -12.1347    6.3200 H         1 <0>         0.3994
     49 H16         1.3438  -13.2880    7.2072 H         1 <0>         0.4040
     50 H17         0.0235   -0.3139    5.4602 H         1 <0>         0.1256
     51 H18         1.2724    1.9340    4.2385 H         1 <0>         0.0565
     52 H19         3.4345    0.2564    5.5634 H         1 <0>         0.1034
     53 H20         4.1705    0.6286    2.8451 H         1 <0>         0.1300
     54 H21         2.5653   -1.0058    2.0473 H         1 <0>         0.1140
     55 H22         2.1377    3.4816    7.3838 H         1 <0>         0.1047
     56 H23         3.9829    4.0432    5.7993 H         1 <0>         0.1548
     57 H24         1.3679    3.8541    5.8279 H         1 <0>         0.0600
     58 H25         0.4436    1.8547    6.5707 H         1 <0>         0.3520
@<TRIPOS>BOND
     1    1    2 1
     2    1   35 1
     3    1   36 1
     4    1   37 1
     5    2    7 ar
     6    2    3 ar
     7    3    4 ar
     8    3   38 1
     9    4    5 ar
    10    4   39 1
    11    5    6 ar
    12    5   40 1
    13    6    7 ar
    14    6    8 1
    15    8   12 1
    16    8    9 2
    17    9   10 1
    18    9   25 1
    19   10   11 2
    20   11   12 1
    21   11   14 1
    22   12   13 1
    23   14   15 1
    24   14   41 1
    25   14   42 1
    26   15   16 1
    27   15   43 1
    28   16   21 ar
    29   16   17 ar
    30   17   18 ar
    31   17   44 1
    32   18   19 ar
    33   18   45 1
    34   19   20 ar
    35   19   22 1
    36   20   21 ar
    37   20   46 1
    38   21   47 1
    39   22   23 2
    40   22   24 am
    41   24   48 1
    42   24   49 1
    43   25   30 1
    44   25   26 2
    45   26   27 1
    46   26   50 1
    47   27   34 1
    48   27   28 1
    49   27   51 1
    50   28   29 1
    51   28   52 1
    52   28   31 1
    53   29   30 2
    54   29   53 1
    55   30   54 1
    56   31   32 2
    57   32   33 1
    58   32   56 1
    59   33   34 1
    60   33   57 1
    61   33   55 1
    62   34   58 1
@<TRIPOS>MOLECULE
CHEMBL565422__6
   58    62     0     0     0
SMALL
USER_CHARGES

@<TRIPOS>ATOM
      1 C1         -0.0184    1.5028    0.0103 C.3       1 <0>        -0.1028
      2 C2          0.0021   -0.0041    0.0020 C.ar      1 <0>         0.1318
      3 C3          0.0056   -0.6792   -1.2045 C.ar      1 <0>        -0.1728
      4 C4          0.0249   -2.0673   -1.2086 C.ar      1 <0>        -0.0720
      5 C5          0.0401   -2.7315    0.0049 C.ar      1 <0>        -0.1487
      6 C6          0.0355   -1.9874    1.1847 C.ar      1 <0>         0.2118
      7 N1          0.0218   -0.6599    1.1446 N.ar      1 <0>        -0.4677
      8 C7          0.0510   -2.6824    2.4912 C.2       1 <0>         0.0579
      9 C8          0.5162   -2.1658    3.6880 C.2       1 <0>         0.0780
     10 N2          0.3364   -3.1527    4.6278 N.pl3     1 <0>        -0.5491
     11 C9         -0.2190   -4.2166    3.9948 C.2       1 <0>         0.1931
     12 N3         -0.3901   -3.9312    2.7346 N.2       1 <0>        -0.4439
     13 C10        -0.5869   -5.5236    4.6488 C.3       1 <0>         0.2116
     14 N4         -2.0010   -5.4975    5.0308 N.pl3     1 <0>        -0.7344
     15 C11        -2.5728   -6.6004    5.6553 C.ar      1 <0>         0.2468
     16 C12        -1.7988   -7.7264    5.9221 C.ar      1 <0>        -0.2089
     17 C13        -2.3618   -8.8195    6.5400 C.ar      1 <0>        -0.0051
     18 C14        -3.7125   -8.7984    6.9000 C.ar      1 <0>        -0.2036
     19 C15        -4.4870   -7.6662    6.6307 C.ar      1 <0>        -0.0334
     20 C16        -3.9167   -6.5741    6.0176 C.ar      1 <0>        -0.2022
     21 C17        -4.3193   -9.9687    7.5621 C.2       1 <0>         0.5677
     22 O1         -3.6445  -10.9530    7.7954 O.2       1 <0>        -0.5482
     23 N5         -5.6216   -9.9469    7.9086 N.am      1 <0>        -0.8552
     24 C18         1.0905   -0.8242    3.9106 C.2       1 <0>        -0.0151
     25 C19         2.4249   -0.6732    4.0744 C.2       1 <0>        -0.1095
     26 C20         2.9526    0.7138    4.3104 C.3       1 <0>         0.0917
     27 C21         1.9766    1.4610    5.2242 C.3       1 <0>         0.0611
     28 C22         0.6178    1.4672    4.5865 C.2       1 <0>        -0.1336
     29 C23         0.2106    0.3666    3.9499 C.2       1 <0>        -0.0830
     30 N6          2.4916    2.7929    5.4930 N.2       1 <0>        -0.5037
     31 C24         3.7293    3.0659    5.4004 C.2       1 <0>         0.1214
     32 C25         4.7909    2.0893    4.9910 C.3       1 <0>         0.0282
     33 N7          4.2673    0.7137    4.9586 N.3       1 <0>        -0.6662
     34 H1          1.0042    1.8801    0.0026 H         1 <0>         0.0766
     35 H2         -0.5455    1.8639   -0.8728 H         1 <0>         0.0752
     36 H3         -0.5286    1.8543    0.9071 H         1 <0>         0.0762
     37 H4         -0.0069   -0.1317   -2.1353 H         1 <0>         0.1345
     38 H5          0.0276   -2.6165   -2.1385 H         1 <0>         0.1368
     39 H6          0.0549   -3.8109    0.0382 H         1 <0>         0.1388
     40 H7         -0.4145   -6.3412    3.9489 H         1 <0>         0.0998
     41 H8          0.0269   -5.6705    5.5375 H         1 <0>         0.0825
     42 H9         -2.5383   -4.7110    4.8480 H         1 <0>         0.4058
     43 H10        -0.7555   -7.7423    5.6434 H         1 <0>         0.1291
     44 H11        -1.7610   -9.6929    6.7464 H         1 <0>         0.1362
     45 H12        -5.5308   -7.6471    6.9073 H         1 <0>         0.1255
     46 H13        -4.5134   -5.6973    5.8137 H         1 <0>         0.1269
     47 H14        -6.1599   -9.1617    7.7225 H         1 <0>         0.3993
     48 H15        -6.0206  -10.7164    8.3440 H         1 <0>         0.4040
     49 H16         3.0901   -1.5232    4.0370 H         1 <0>         0.1296
     50 H17         3.0195    1.2413    3.3589 H         1 <0>         0.1002
     51 H18         1.9135    0.9297    6.1739 H         1 <0>         0.0904
     52 H19        -0.0138    2.3417    4.6380 H         1 <0>         0.1303
     53 H20        -0.7563    0.3421    3.4694 H         1 <0>         0.1308
     54 H21         5.1575    2.3552    3.9995 H         1 <0>         0.1030
     55 H22         4.0387    4.0741    5.6330 H         1 <0>         0.1535
     56 H23         5.6162    2.1406    5.7012 H         1 <0>         0.1036
     57 H24         4.2120    0.3259    5.8884 H         1 <0>         0.3441
     58 H25         0.5646   -3.0987    5.5690 H         1 <0>         0.4250
@<TRIPOS>BOND
     1    1    2 1
     2    1   34 1
     3    1   35 1
     4    1   36 1
     5    2    7 ar
     6    2    3 ar
     7    3    4 ar
     8    3   37 1
     9    4    5 ar
    10    4   38 1
    11    5    6 ar
    12    5   39 1
    13    6    7 ar
    14    6    8 1
    15    8   12 1
    16    8    9 2
    17    9   10 1
    18    9   24 1
    19   10   11 1
    20   10   58 1
    21   11   12 2
    22   11   13 1
    23   13   14 1
    24   13   40 1
    25   13   41 1
    26   14   15 1
    27   14   42 1
    28   15   20 ar
    29   15   16 ar
    30   16   17 ar
    31   16   43 1
    32   17   18 ar
    33   17   44 1
    34   18   19 ar
    35   18   21 1
    36   19   20 ar
    37   19   45 1
    38   20   46 1
    39   21   22 2
    40   21   23 am
    41   23   47 1
    42   23   48 1
    43   24   29 1
    44   24   25 2
    45   25   26 1
    46   25   49 1
    47   26   33 1
    48   26   27 1
    49   26   50 1
    50   27   28 1
    51   27   51 1
    52   27   30 1
    53   28   29 2
    54   28   52 1
    55   29   53 1
    56   30   31 2
    57   31   32 1
    58   31   55 1
    59   32   33 1
    60   32   56 1
    61   32   54 1
    62   33   57 1
@<TRIPOS>MOLECULE
CHEMBL565422__7
   58    62     0     0     0
SMALL
USER_CHARGES

@<TRIPOS>ATOM
      1 C1         -0.1798    1.6440    0.2175 C.3       1 <0>        -0.1059
      2 C2         -0.2342    0.1395    0.1520 C.ar      1 <0>         0.1424
      3 C3         -0.3994   -0.4841   -1.0712 C.ar      1 <0>        -0.1701
      4 C4         -0.4488   -1.8705   -1.1291 C.ar      1 <0>        -0.0634
      5 C5         -0.3300   -2.5858    0.0486 C.ar      1 <0>        -0.1755
      6 C6         -0.1654   -1.8922    1.2496 C.ar      1 <0>         0.2029
      7 N1         -0.1183   -0.5634    1.2600 N.ar      1 <0>        -0.4541
      8 C7         -0.0376   -2.6394    2.5153 C.2       1 <0>         0.0334
      9 C8          0.5986   -2.2171    3.6696 C.2       1 <0>         0.1015
     10 N2          0.4785   -3.2029    4.5776 N.2       1 <0>        -0.4509
     11 C9         -0.1865   -4.1968    4.0576 C.2       1 <0>         0.2037
     12 N3         -0.5323   -3.8946    2.7881 N.pl3     1 <0>        -0.5460
     13 H1         -1.0345   -4.4589    2.1797 H         1 <0>         0.4239
     14 C10        -0.5232   -5.4829    4.7672 C.3       1 <0>         0.2097
     15 N4          0.6017   -6.4142    4.6502 N.pl3     1 <0>        -0.7343
     16 C11         0.5233   -7.6755    5.2301 C.ar      1 <0>         0.2468
     17 C12        -0.6271   -8.0540    5.9167 C.ar      1 <0>        -0.2087
     18 C13        -0.7077   -9.3016    6.4917 C.ar      1 <0>        -0.0050
     19 C14         0.3670  -10.1893    6.3858 C.ar      1 <0>        -0.2033
     20 C15         1.5208   -9.8062    5.6956 C.ar      1 <0>        -0.0334
     21 C16         1.5931   -8.5593    5.1180 C.ar      1 <0>        -0.2020
     22 C17         0.2840  -11.5273    7.0014 C.2       1 <0>         0.5678
     23 O1         -0.7200  -11.8591    7.6018 O.2       1 <0>        -0.5481
     24 N5          1.3210  -12.3820    6.8985 N.am      1 <0>        -0.8552
     25 C18         1.2853   -0.9199    3.8685 C.2       1 <0>        -0.0021
     26 C19         2.3347   -0.5795    3.0894 C.2       1 <0>        -0.0895
     27 C20         3.0013    0.7420    3.3446 C.3       1 <0>         0.0674
     28 C21         3.0600    0.9810    4.8565 C.3       1 <0>         0.0889
     29 C22         1.6655    0.9259    5.4110 C.2       1 <0>        -0.1423
     30 C23         0.8224    0.0151    4.9186 C.2       1 <0>        -0.0912
     31 N6          3.7082    2.2757    5.0840 N.3       1 <0>        -0.6653
     32 C24         5.1217    2.1861    4.6821 C.3       1 <0>         0.0278
     33 C25         5.2710    1.4673    3.3746 C.2       1 <0>         0.1211
     34 N7          4.3427    0.8242    2.7919 N.2       1 <0>        -0.5063
     35 H2          0.8527    1.9754    0.1068 H         1 <0>         0.0799
     36 H3         -0.7846    2.0648   -0.5858 H         1 <0>         0.0775
     37 H4         -0.5682    1.9801    1.1789 H         1 <0>         0.0792
     38 H5         -0.4896    0.1023   -1.9737 H         1 <0>         0.1385
     39 H6         -0.5774   -2.3791   -2.0731 H         1 <0>         0.1392
     40 H7         -0.3645   -3.6652    0.0397 H         1 <0>         0.1284
     41 H8         -0.7165   -5.2772    5.8200 H         1 <0>         0.1011
     42 H9         -1.4103   -5.9261    4.3147 H         1 <0>         0.0829
     43 H10         1.4012   -6.1508    4.1681 H         1 <0>         0.4057
     44 H11        -1.4569   -7.3677    5.9985 H         1 <0>         0.1292
     45 H12        -1.6003   -9.5946    7.0245 H         1 <0>         0.1363
     46 H13         2.3529  -10.4896    5.6124 H         1 <0>         0.1256
     47 H14         2.4824   -8.2645    4.5806 H         1 <0>         0.1269
     48 H15         2.1220  -12.1173    6.4196 H         1 <0>         0.3993
     49 H16         1.2665  -13.2618    7.3033 H         1 <0>         0.4040
     50 H17         2.6838   -1.2373    2.3073 H         1 <0>         0.1178
     51 H18         2.4012    1.5301    2.8897 H         1 <0>         0.0971
     52 H19         3.6632    0.2009    5.3210 H         1 <0>         0.0936
     53 H20         1.3508    1.6087    6.1863 H         1 <0>         0.1318
     54 H21        -0.1914   -0.0425    5.2865 H         1 <0>         0.1221
     55 H22         3.2349    3.0106    4.5800 H         1 <0>         0.3441
     56 H23         5.5297    3.1922    4.5850 H         1 <0>         0.1021
     57 H24         6.2372    1.4986    2.8932 H         1 <0>         0.1514
     58 H25         5.6778    1.6481    5.4498 H         1 <0>         0.1017
@<TRIPOS>BOND
     1    1    2 1
     2    1   35 1
     3    1   36 1
     4    1   37 1
     5    2    7 ar
     6    2    3 ar
     7    3    4 ar
     8    3   38 1
     9    4    5 ar
    10    4   39 1
    11    5    6 ar
    12    5   40 1
    13    6    7 ar
    14    6    8 1
    15    8   12 1
    16    8    9 2
    17    9   10 1
    18    9   25 1
    19   10   11 2
    20   11   12 1
    21   11   14 1
    22   12   13 1
    23   14   15 1
    24   14   41 1
    25   14   42 1
    26   15   16 1
    27   15   43 1
    28   16   21 ar
    29   16   17 ar
    30   17   18 ar
    31   17   44 1
    32   18   19 ar
    33   18   45 1
    34   19   20 ar
    35   19   22 1
    36   20   21 ar
    37   20   46 1
    38   21   47 1
    39   22   23 2
    40   22   24 am
    41   24   48 1
    42   24   49 1
    43   25   30 1
    44   25   26 2
    45   26   27 1
    46   26   50 1
    47   27   28 1
    48   27   51 1
    49   27   34 1
    50   28   29 1
    51   28   31 1
    52   28   52 1
    53   29   30 2
    54   29   53 1
    55   30   54 1
    56   31   55 1
    57   31   32 1
    58   32   56 1
    59   32   58 1
    60   32   33 1
    61   33   57 1
    62   33   34 2
@<TRIPOS>MOLECULE
CHEMBL565422__8
   58    62     0     0     0
SMALL
USER_CHARGES

@<TRIPOS>ATOM
      1 C1         -0.1804    1.6443    0.2179 C.3       1 <0>        -0.1061
      2 C2         -0.2348    0.1397    0.1523 C.ar      1 <0>         0.1433
      3 C3         -0.4001   -0.4837   -1.0709 C.ar      1 <0>        -0.1699
      4 C4         -0.4495   -1.8701   -1.1290 C.ar      1 <0>        -0.0636
      5 C5         -0.3305   -2.5855    0.0487 C.ar      1 <0>        -0.1756
      6 C6         -0.1657   -1.8920    1.2497 C.ar      1 <0>         0.2024
      7 N1         -0.1187   -0.5632    1.2602 N.ar      1 <0>        -0.4535
      8 C7         -0.0378   -2.6393    2.5153 C.2       1 <0>         0.0344
      9 C8          0.5986   -2.2171    3.6696 C.2       1 <0>         0.0996
     10 N2          0.4787   -3.2030    4.5775 N.2       1 <0>        -0.4510
     11 C9         -0.1864   -4.1968    4.0575 C.2       1 <0>         0.2035
     12 N3         -0.5324   -3.8945    2.7881 N.pl3     1 <0>        -0.5460
     13 H1         -1.0347   -4.4588    2.1797 H         1 <0>         0.4239
     14 C10        -0.5229   -5.4830    4.7671 C.3       1 <0>         0.2096
     15 N4          0.6020   -6.4142    4.6498 N.pl3     1 <0>        -0.7343
     16 C11         0.5237   -7.6756    5.2297 C.ar      1 <0>         0.2466
     17 C12        -0.6266   -8.0542    5.9164 C.ar      1 <0>        -0.2086
     18 C13        -0.7072   -9.3019    6.4913 C.ar      1 <0>        -0.0050
     19 C14         0.3676  -10.1895    6.3852 C.ar      1 <0>        -0.2032
     20 C15         1.5213   -9.8063    5.6949 C.ar      1 <0>        -0.0335
     21 C16         1.5935   -8.5594    5.1173 C.ar      1 <0>        -0.2019
     22 C17         0.2847  -11.5276    7.0008 C.2       1 <0>         0.5677
     23 O1         -0.7192  -11.8594    7.6012 O.2       1 <0>        -0.5480
     24 N5          1.3217  -12.3822    6.8976 N.am      1 <0>        -0.8552
     25 C18         1.2853   -0.9199    3.8685 C.2       1 <0>         0.0040
     26 C19         2.3345   -0.5800    3.0893 C.2       1 <0>        -0.1052
     27 C20         3.0020    0.7419    3.3437 C.3       1 <0>         0.0968
     28 C21         3.0597    0.9792    4.8558 C.3       1 <0>         0.0593
     29 C22         1.6663    0.9249    5.4115 C.2       1 <0>        -0.1278
     30 C23         0.8220    0.0147    4.9188 C.2       1 <0>        -0.0965
     31 N6          3.7356    2.2380    5.1204 N.2       1 <0>        -0.5030
     32 C24         4.5472    2.7523    4.2887 C.2       1 <0>         0.1187
     33 C25         4.8895    2.1628    2.9531 C.3       1 <0>         0.0292
     34 N7          4.3728    0.7900    2.8270 N.3       1 <0>        -0.6669
     35 H2          0.8521    1.9757    0.1071 H         1 <0>         0.0811
     36 H3         -0.7853    2.0651   -0.5853 H         1 <0>         0.0772
     37 H4         -0.5686    1.9803    1.1794 H         1 <0>         0.0789
     38 H5         -0.4904    0.1027   -1.9733 H         1 <0>         0.1384
     39 H6         -0.5783   -2.3787   -2.0730 H         1 <0>         0.1389
     40 H7         -0.3650   -3.6650    0.0397 H         1 <0>         0.1281
     41 H8         -0.7161   -5.2774    5.8200 H         1 <0>         0.1009
     42 H9         -1.4101   -5.9262    4.3147 H         1 <0>         0.0829
     43 H10         1.4014   -6.1508    4.1677 H         1 <0>         0.4057
     44 H11        -1.4565   -7.3679    5.9984 H         1 <0>         0.1292
     45 H12        -1.5997   -9.5949    7.0243 H         1 <0>         0.1363
     46 H13         2.3534  -10.4897    5.6115 H         1 <0>         0.1256
     47 H14         2.4826   -8.2645    4.5799 H         1 <0>         0.1270
     48 H15         2.1226  -12.1175    6.4186 H         1 <0>         0.3993
     49 H16         1.2672  -13.2620    7.3024 H         1 <0>         0.4040
     50 H17         2.6833   -1.2383    2.3073 H         1 <0>         0.1209
     51 H18         2.4150    1.5370    2.8839 H         1 <0>         0.0976
     52 H19         3.6477    0.1821    5.3107 H         1 <0>         0.0934
     53 H20         1.3525    1.6074    6.1874 H         1 <0>         0.1289
     54 H21        -0.1918   -0.0427    5.2866 H         1 <0>         0.1228
     55 H22         4.4548    2.7814    2.1679 H         1 <0>         0.1011
     56 H23         5.0246    3.6813    4.5636 H         1 <0>         0.1518
     57 H24         5.9731    2.1487    2.8363 H         1 <0>         0.1015
     58 H25         4.9658    0.1344    3.3134 H         1 <0>         0.3442
@<TRIPOS>BOND
     1    1    2 1
     2    1   35 1
     3    1   36 1
     4    1   37 1
     5    2    7 ar
     6    2    3 ar
     7    3    4 ar
     8    3   38 1
     9    4    5 ar
    10    4   39 1
    11    5    6 ar
    12    5   40 1
    13    6    7 ar
    14    6    8 1
    15    8   12 1
    16    8    9 2
    17    9   10 1
    18    9   25 1
    19   10   11 2
    20   11   12 1
    21   11   14 1
    22   12   13 1
    23   14   15 1
    24   14   41 1
    25   14   42 1
    26   15   16 1
    27   15   43 1
    28   16   21 ar
    29   16   17 ar
    30   17   18 ar
    31   17   44 1
    32   18   19 ar
    33   18   45 1
    34   19   20 ar
    35   19   22 1
    36   20   21 ar
    37   20   46 1
    38   21   47 1
    39   22   23 2
    40   22   24 am
    41   24   48 1
    42   24   49 1
    43   25   30 1
    44   25   26 2
    45   26   27 1
    46   26   50 1
    47   27   34 1
    48   27   28 1
    49   27   51 1
    50   28   29 1
    51   28   52 1
    52   28   31 1
    53   29   30 2
    54   29   53 1
    55   30   54 1
    56   31   32 2
    57   32   33 1
    58   32   56 1
    59   33   34 1
    60   33   57 1
    61   33   55 1
    62   34   58 1
@<TRIPOS>MOLECULE
CHEMBL565422__9
   58    62     0     0     0
SMALL
USER_CHARGES

@<TRIPOS>ATOM
      1 C1         -0.0184    1.5028    0.0103 C.3       1 <0>        -0.1023
      2 C2          0.0021   -0.0041    0.0020 C.ar      1 <0>         0.1321
      3 C3          0.0056   -0.6792   -1.2045 C.ar      1 <0>        -0.1730
      4 C4          0.0249   -2.0673   -1.2086 C.ar      1 <0>        -0.0726
      5 C5          0.0401   -2.7315    0.0049 C.ar      1 <0>        -0.1491
      6 C6          0.0355   -1.9874    1.1847 C.ar      1 <0>         0.2104
      7 N1          0.0218   -0.6599    1.1446 N.ar      1 <0>        -0.4640
      8 C7          0.0510   -2.6824    2.4912 C.2       1 <0>         0.0594
      9 C8          0.5162   -2.1658    3.6880 C.2       1 <0>         0.0744
     10 N2          0.3364   -3.1527    4.6278 N.pl3     1 <0>        -0.5481
     11 C9         -0.2190   -4.2166    3.9948 C.2       1 <0>         0.1933
     12 N3         -0.3901   -3.9312    2.7346 N.2       1 <0>        -0.4447
     13 C10        -0.5869   -5.5236    4.6488 C.3       1 <0>         0.2115
     14 N4         -2.0010   -5.4975    5.0308 N.pl3     1 <0>        -0.7343
     15 C11        -2.5728   -6.6004    5.6553 C.ar      1 <0>         0.2468
     16 C12        -1.7988   -7.7264    5.9221 C.ar      1 <0>        -0.2087
     17 C13        -2.3618   -8.8195    6.5400 C.ar      1 <0>        -0.0050
     18 C14        -3.7125   -8.7984    6.9000 C.ar      1 <0>        -0.2035
     19 C15        -4.4870   -7.6662    6.6307 C.ar      1 <0>        -0.0334
     20 C16        -3.9167   -6.5741    6.0176 C.ar      1 <0>        -0.2022
     21 C17        -4.3193   -9.9687    7.5621 C.2       1 <0>         0.5677
     22 O1         -3.6445  -10.9530    7.7954 O.2       1 <0>        -0.5482
     23 N5         -5.6216   -9.9469    7.9086 N.am      1 <0>        -0.8552
     24 C18         1.0905   -0.8242    3.9106 C.2       1 <0>        -0.0053
     25 C19         2.4157   -0.6752    4.0731 C.2       1 <0>        -0.1063
     26 C20         3.0072    0.6829    4.3262 C.3       1 <0>         0.0915
     27 C21         2.2046    1.7697    3.6241 C.3       1 <0>         0.0689
     28 C22         0.7293    1.5737    3.8356 C.2       1 <0>        -0.1363
     29 C23         0.2118    0.3632    3.9496 C.2       1 <0>        -0.0754
     30 N6          2.6019    3.0908    4.0970 N.2       1 <0>        -0.5102
     31 C24         3.2782    3.2925    5.1470 C.2       1 <0>         0.1247
     32 C25         3.7718    2.1924    6.0419 C.3       1 <0>         0.0275
     33 N7          3.0288    0.9536    5.7718 N.3       1 <0>        -0.6672
     34 H1          1.0042    1.8801    0.0026 H         1 <0>         0.0765
     35 H2         -0.5455    1.8639   -0.8728 H         1 <0>         0.0744
     36 H3         -0.5286    1.8543    0.9071 H         1 <0>         0.0765
     37 H4         -0.0069   -0.1317   -2.1353 H         1 <0>         0.1342
     38 H5          0.0276   -2.6165   -2.1385 H         1 <0>         0.1364
     39 H6          0.0549   -3.8109    0.0382 H         1 <0>         0.1384
     40 H7         -0.4145   -6.3412    3.9489 H         1 <0>         0.0995
     41 H8          0.0269   -5.6705    5.5375 H         1 <0>         0.0829
     42 H9         -2.5383   -4.7110    4.8480 H         1 <0>         0.4057
     43 H10        -0.7555   -7.7423    5.6434 H         1 <0>         0.1291
     44 H11        -1.7610   -9.6929    6.7464 H         1 <0>         0.1362
     45 H12        -5.5308   -7.6471    6.9073 H         1 <0>         0.1254
     46 H13        -4.5134   -5.6973    5.8137 H         1 <0>         0.1268
     47 H14        -6.1599   -9.1617    7.7225 H         1 <0>         0.3993
     48 H15        -6.0206  -10.7164    8.3440 H         1 <0>         0.4040
     49 H16         3.0616   -1.5393    4.0218 H         1 <0>         0.1215
     50 H17         4.0270    0.7068    3.9420 H         1 <0>         0.0943
     51 H18         2.4129    1.7214    2.5553 H         1 <0>         0.1066
     52 H19         0.0816    2.4362    3.8911 H         1 <0>         0.1222
     53 H20        -0.8540    0.2426    4.0758 H         1 <0>         0.1196
     54 H21         4.8331    2.0254    5.8583 H         1 <0>         0.1007
     55 H22         3.5138    4.3121    5.4141 H         1 <0>         0.1528
     56 H23         3.6274    2.4809    7.0831 H         1 <0>         0.1029
     57 H24         2.0924    1.0047    6.1442 H         1 <0>         0.3450
     58 H25         0.5646   -3.0987    5.5690 H         1 <0>         0.4261
@<TRIPOS>BOND
     1    1    2 1
     2    1   34 1
     3    1   35 1
     4    1   36 1
     5    2    7 ar
     6    2    3 ar
     7    3    4 ar
     8    3   37 1
     9    4    5 ar
    10    4   38 1
    11    5    6 ar
    12    5   39 1
    13    6    7 ar
    14    6    8 1
    15    8   12 1
    16    8    9 2
    17    9   10 1
    18    9   24 1
    19   10   11 1
    20   10   58 1
    21   11   12 2
    22   11   13 1
    23   13   14 1
    24   13   40 1
    25   13   41 1
    26   14   15 1
    27   14   42 1
    28   15   20 ar
    29   15   16 ar
    30   16   17 ar
    31   16   43 1
    32   17   18 ar
    33   17   44 1
    34   18   19 ar
    35   18   21 1
    36   19   20 ar
    37   19   45 1
    38   20   46 1
    39   21   22 2
    40   21   23 am
    41   23   47 1
    42   23   48 1
    43   24   29 1
    44   24   25 2
    45   25   26 1
    46   25   49 1
    47   26   33 1
    48   26   27 1
    49   26   50 1
    50   27   28 1
    51   27   51 1
    52   27   30 1
    53   28   29 2
    54   28   52 1
    55   29   53 1
    56   30   31 2
    57   31   32 1
    58   31   55 1
    59   32   33 1
    60   32   56 1
    61   32   54 1
    62   33   57 1
@<TRIPOS>MOLECULE
CHEMBL565422__10
   58    62     0     0     0
SMALL
USER_CHARGES

@<TRIPOS>ATOM
      1 C1         -0.1875    1.6473    0.2229 C.3       1 <0>        -0.1065
      2 C2         -0.2416    0.1427    0.1559 C.ar      1 <0>         0.1430
      3 C3         -0.4088   -0.4796   -1.0676 C.ar      1 <0>        -0.1707
      4 C4         -0.4579   -1.8660   -1.1268 C.ar      1 <0>        -0.0636
      5 C5         -0.3367   -2.5825    0.0500 C.ar      1 <0>        -0.1763
      6 C6         -0.1700   -1.8900    1.2514 C.ar      1 <0>         0.2038
      7 N1         -0.1234   -0.5612    1.2630 N.ar      1 <0>        -0.4544
      8 C7         -0.0397   -2.6384    2.5160 C.2       1 <0>         0.0306
      9 C8          0.5986   -2.2171    3.6696 C.2       1 <0>         0.1038
     10 N2          0.4805   -3.2039    4.5768 N.2       1 <0>        -0.4495
     11 C9         -0.1852   -4.1974    4.0571 C.2       1 <0>         0.2021
     12 N3         -0.5335   -3.8940    2.7886 N.pl3     1 <0>        -0.5466
     13 H1         -1.0367   -4.4579    2.1805 H         1 <0>         0.4233
     14 C10        -0.5201   -5.4844    4.7660 C.3       1 <0>         0.2101
     15 N4          0.6048   -6.4151    4.6460 N.pl3     1 <0>        -0.7339
     16 C11         0.5278   -7.6771    5.2248 C.ar      1 <0>         0.2472
     17 C12        -0.6212   -8.0566    5.9132 C.ar      1 <0>        -0.2088
     18 C13        -0.7004   -9.3048    6.4871 C.ar      1 <0>        -0.0051
     19 C14         0.3745  -10.1921    6.3782 C.ar      1 <0>        -0.2038
     20 C15         1.5268   -9.8079    5.6863 C.ar      1 <0>        -0.0333
     21 C16         1.5977   -8.5604    5.1098 C.ar      1 <0>        -0.2021
     22 C17         0.2930  -11.5307    6.9927 C.2       1 <0>         0.5678
     23 O1         -0.7098  -11.8634    7.5946 O.2       1 <0>        -0.5484
     24 N5          1.3301  -12.3850    6.8870 N.am      1 <0>        -0.8553
     25 C18         1.2853   -0.9199    3.8685 C.2       1 <0>        -0.0012
     26 C19         2.3267   -0.5842    3.0940 C.2       1 <0>        -0.0790
     27 C20         3.0149    0.7418    3.2670 C.3       1 <0>         0.1172
     28 C21         2.9759    1.1892    4.7218 C.3       1 <0>         0.0924
     29 C22         1.6073    1.0025    5.3117 C.2       1 <0>        -0.1673
     30 C23         0.8215    0.0112    4.9169 C.2       1 <0>        -0.0582
     31 N6          3.9605    0.4165    5.4942 N.3       1 <0>        -0.6728
     32 C24         5.3215    0.7400    5.0445 C.3       1 <0>         0.0269
     33 C25         5.4031    0.6465    3.5480 C.2       1 <0>         0.1641
     34 N7          4.3900    0.6529    2.7903 N.2       1 <0>        -0.5139
     35 H2          0.8447    1.9791    0.1106 H         1 <0>         0.0816
     36 H3         -0.7939    2.0687   -0.5789 H         1 <0>         0.0770
     37 H4         -0.5742    1.9823    1.1853 H         1 <0>         0.0794
     38 H5         -0.5009    0.1076   -1.9693 H         1 <0>         0.1383
     39 H6         -0.5881   -2.3737   -2.0711 H         1 <0>         0.1387
     40 H7         -0.3709   -3.6619    0.0401 H         1 <0>         0.1279
     41 H8         -0.7115   -5.2797    5.8194 H         1 <0>         0.1006
     42 H9         -1.4080   -5.9273    4.3148 H         1 <0>         0.0824
     43 H10         1.4033   -6.1511    4.1627 H         1 <0>         0.4059
     44 H11        -1.4511   -7.3706    5.9972 H         1 <0>         0.1291
     45 H12        -1.5918   -9.5986    7.0213 H         1 <0>         0.1361
     46 H13         2.3590  -10.4910    5.6008 H         1 <0>         0.1254
     47 H14         2.4858   -8.2648    4.5710 H         1 <0>         0.1270
     48 H15         2.1300  -12.1196    6.4068 H         1 <0>         0.3993
     49 H16         1.2765  -13.2652    7.2910 H         1 <0>         0.4039
     50 H17         2.6746   -1.2725    2.3380 H         1 <0>         0.1099
     51 H18         2.4981    1.4848    2.6596 H         1 <0>         0.1042
     52 H19         3.2447    2.2441    4.7758 H         1 <0>         0.0488
     53 H20         1.2558    1.6898    6.0670 H         1 <0>         0.1191
     54 H21        -0.1536   -0.1186    5.3626 H         1 <0>         0.1184
     55 H22         3.8568    0.5851    6.4836 H         1 <0>         0.3522
     56 H23         5.5751    1.7526    5.3582 H         1 <0>         0.0566
     57 H24         6.3799    0.5696    3.0937 H         1 <0>         0.1542
     58 H25         6.0260    0.0367    5.4885 H         1 <0>         0.1022
@<TRIPOS>BOND
     1    1    2 1
     2    1   35 1
     3    1   36 1
     4    1   37 1
     5    2    7 ar
     6    2    3 ar
     7    3    4 ar
     8    3   38 1
     9    4    5 ar
    10    4   39 1
    11    5    6 ar
    12    5   40 1
    13    6    7 ar
    14    6    8 1
    15    8   12 1
    16    8    9 2
    17    9   10 1
    18    9   25 1
    19   10   11 2
    20   11   12 1
    21   11   14 1
    22   12   13 1
    23   14   15 1
    24   14   41 1
    25   14   42 1
    26   15   16 1
    27   15   43 1
    28   16   21 ar
    29   16   17 ar
    30   17   18 ar
    31   17   44 1
    32   18   19 ar
    33   18   45 1
    34   19   20 ar
    35   19   22 1
    36   20   21 ar
    37   20   46 1
    38   21   47 1
    39   22   23 2
    40   22   24 am
    41   24   48 1
    42   24   49 1
    43   25   30 1
    44   25   26 2
    45   26   27 1
    46   26   50 1
    47   27   28 1
    48   27   51 1
    49   27   34 1
    50   28   29 1
    51   28   31 1
    52   28   52 1
    53   29   30 2
    54   29   53 1
    55   30   54 1
    56   31   55 1
    57   31   32 1
    58   32   56 1
    59   32   58 1
    60   32   33 1
    61   33   57 1
    62   33   34 2
@<TRIPOS>MOLECULE
CHEMBL565422__11
   58    62     0     0     0
SMALL
USER_CHARGES

@<TRIPOS>ATOM
      1 C1         -0.1506    1.6317    0.1973 C.3       1 <0>        -0.1073
      2 C2         -0.2062    0.1269    0.1371 C.ar      1 <0>         0.1422
      3 C3         -0.3633   -0.5011   -1.0849 C.ar      1 <0>        -0.1707
      4 C4         -0.4138   -1.8876   -1.1378 C.ar      1 <0>        -0.0640
      5 C5         -0.3043   -2.5986    0.0434 C.ar      1 <0>        -0.1758
      6 C6         -0.1475   -1.9006    1.2430 C.ar      1 <0>         0.2025
      7 N1         -0.0991   -0.5718    1.2486 N.ar      1 <0>        -0.4508
      8 C7         -0.0297   -2.6431    2.5123 C.2       1 <0>         0.0346
      9 C8          0.5986   -2.2171    3.6696 C.2       1 <0>         0.0997
     10 N2          0.4709   -3.1993    4.5804 N.2       1 <0>        -0.4532
     11 C9         -0.1915   -4.1944    4.0594 C.2       1 <0>         0.2045
     12 N3         -0.5278   -3.8967    2.7864 N.pl3     1 <0>        -0.5459
     13 H1         -1.0263   -4.4628    2.1765 H         1 <0>         0.4239
     14 C10        -0.5347   -5.4775    4.7715 C.3       1 <0>         0.2096
     15 N4          0.5900   -6.4104    4.6662 N.pl3     1 <0>        -0.7343
     16 C11         0.5060   -7.6694    5.2503 C.ar      1 <0>         0.2466
     17 C12        -0.6498   -8.0441    5.9300 C.ar      1 <0>        -0.2086
     18 C13        -0.7360   -9.2894    6.5092 C.ar      1 <0>        -0.0050
     19 C14         0.3386  -10.1786    6.4144 C.ar      1 <0>        -0.2032
     20 C15         1.4977   -9.7994    5.7311 C.ar      1 <0>        -0.0335
     21 C16         1.5756   -8.5548    5.1493 C.ar      1 <0>        -0.2019
     22 C17         0.2496  -11.5142    7.0345 C.2       1 <0>         0.5677
     23 O1         -0.7591  -11.8426    7.6289 O.2       1 <0>        -0.5480
     24 N5          1.2864  -12.3704    6.9423 N.am      1 <0>        -0.8552
     25 C18         1.2853   -0.9199    3.8685 C.2       1 <0>         0.0078
     26 C19         0.8683   -0.0764    4.8238 C.2       1 <0>        -0.0983
     27 C20         1.5404    1.2538    5.0170 C.3       1 <0>         0.0938
     28 C21         3.0216    1.1743    4.6730 C.3       1 <0>         0.0657
     29 C22         3.2367    0.4362    3.3812 C.2       1 <0>        -0.1455
     30 C23         2.4365   -0.5518    3.0197 C.2       1 <0>        -0.0835
     31 N6          3.6026    2.5089    4.5841 N.2       1 <0>        -0.5118
     32 C24         2.9228    3.5720    4.4945 C.2       1 <0>         0.1248
     33 C25         1.4215    3.5997    4.4788 C.3       1 <0>         0.0266
     34 N7          0.8978    2.2636    4.1622 N.3       1 <0>        -0.6636
     35 H2          0.8830    1.9615    0.0928 H         1 <0>         0.0791
     36 H3         -0.7491    2.0500   -0.6120 H         1 <0>         0.0773
     37 H4         -0.5456    1.9719    1.1546 H         1 <0>         0.0829
     38 H5         -0.4463    0.0819   -1.9902 H         1 <0>         0.1382
     39 H6         -0.5362   -2.3997   -2.0808 H         1 <0>         0.1387
     40 H7         -0.3399   -3.6780    0.0384 H         1 <0>         0.1280
     41 H8         -0.7354   -5.2675    5.8221 H         1 <0>         0.1009
     42 H9         -1.4190   -5.9214    4.3144 H         1 <0>         0.0829
     43 H10         1.3932   -6.1498    4.1889 H         1 <0>         0.4058
     44 H11        -1.4794   -7.3565    6.0032 H         1 <0>         0.1291
     45 H12        -1.6327   -9.5793    7.0367 H         1 <0>         0.1363
     46 H13         2.3296  -10.4840    5.6565 H         1 <0>         0.1256
     47 H14         2.4690   -8.2630    4.6172 H         1 <0>         0.1270
     48 H15         2.0910  -12.1084    6.4682 H         1 <0>         0.3993
     49 H16         1.2279  -13.2485    7.3501 H         1 <0>         0.4040
     50 H17         0.0415   -0.3554    5.4601 H         1 <0>         0.1226
     51 H18         1.4458    1.5549    6.0603 H         1 <0>         0.0934
     52 H19         3.5365    0.6386    5.4705 H         1 <0>         0.1059
     53 H20         4.0607    0.7148    2.7410 H         1 <0>         0.1204
     54 H21         2.6226   -1.0867    2.1001 H         1 <0>         0.1129
     55 H22         1.0551    3.9096    5.4575 H         1 <0>         0.0997
     56 H23         3.4512    4.5114    4.4258 H         1 <0>         0.1510
     57 H24         1.0806    4.3096    3.7252 H         1 <0>         0.1009
     58 H25         1.0275    2.0461    3.1855 H         1 <0>         0.3484
@<TRIPOS>BOND
     1    1    2 1
     2    1   35 1
     3    1   36 1
     4    1   37 1
     5    2    7 ar
     6    2    3 ar
     7    3    4 ar
     8    3   38 1
     9    4    5 ar
    10    4   39 1
    11    5    6 ar
    12    5   40 1
    13    6    7 ar
    14    6    8 1
    15    8   12 1
    16    8    9 2
    17    9   10 1
    18    9   25 1
    19   10   11 2
    20   11   12 1
    21   11   14 1
    22   12   13 1
    23   14   15 1
    24   14   41 1
    25   14   42 1
    26   15   16 1
    27   15   43 1
    28   16   21 ar
    29   16   17 ar
    30   17   18 ar
    31   17   44 1
    32   18   19 ar
    33   18   45 1
    34   19   20 ar
    35   19   22 1
    36   20   21 ar
    37   20   46 1
    38   21   47 1
    39   22   23 2
    40   22   24 am
    41   24   48 1
    42   24   49 1
    43   25   30 1
    44   25   26 2
    45   26   27 1
    46   26   50 1
    47   27   34 1
    48   27   28 1
    49   27   51 1
    50   28   29 1
    51   28   52 1
    52   28   31 1
    53   29   30 2
    54   29   53 1
    55   30   54 1
    56   31   32 2
    57   32   33 1
    58   32   56 1
    59   33   34 1
    60   33   57 1
    61   33   55 1
    62   34   58 1
@<TRIPOS>MOLECULE
CHEMBL120718
   38    41     0     0     0
SMALL
USER_CHARGES

@<TRIPOS>ATOM
      1 C1         -0.0184    1.5028    0.0103 C.3       1 <0>        -0.1060
      2 C2          0.0021   -0.0041    0.0020 C.ar      1 <0>         0.1355
      3 C3          0.0055   -0.6794   -1.2046 C.ar      1 <0>        -0.1643
      4 C4          0.0244   -2.0670   -1.2080 C.ar      1 <0>        -0.0705
      5 C5          0.0391   -2.7306    0.0066 C.ar      1 <0>        -0.1471
      6 C6          0.0346   -1.9865    1.1848 C.ar      1 <0>         0.2029
      7 N1          0.0218   -0.6599    1.1445 N.ar      1 <0>        -0.4613
      8 C7          0.0503   -2.6820    2.4936 C.2       1 <0>         0.1376
      9 C8          0.5276   -2.1488    3.7164 C.2       1 <0>        -0.1647
     10 C9          0.3647   -3.1082    4.6731 C.2       1 <0>         0.0827
     11 N2         -0.1896   -4.1886    4.0897 N.pl3     1 <0>        -0.3799
     12 N3         -0.3812   -3.9008    2.7275 N.2       1 <0>        -0.2501
     13 C10        -0.4019   -5.2658    5.0707 C.3       1 <0>         0.1282
     14 C11         0.4862   -4.9056    6.2807 C.3       1 <0>        -0.1319
     15 C12         0.5917   -3.3695    6.1475 C.3       1 <0>        -0.0686
     16 C13         1.1007   -0.7952    3.9193 C.ar      1 <0>         0.0218
     17 C14         2.4380   -0.6502    4.2836 C.ar      1 <0>        -0.0908
     18 C15         2.9679    0.6101    4.4717 C.ar      1 <0>        -0.1308
     19 C16         2.1733    1.7311    4.2991 C.ar      1 <0>         0.0640
     20 C17         0.8414    1.5926    3.9365 C.ar      1 <0>         0.0637
     21 C18         0.3047    0.3341    3.7407 C.ar      1 <0>        -0.0705
     22 F1          0.0699    2.6889    3.7693 F         1 <0>        -0.1303
     23 F2          2.6964    2.9628    4.4848 F         1 <0>        -0.1315
     24 H1          1.0042    1.8801    0.0026 H         1 <0>         0.0793
     25 H2         -0.5455    1.8639   -0.8728 H         1 <0>         0.0775
     26 H3         -0.5286    1.8543    0.9071 H         1 <0>         0.0781
     27 H4         -0.0067   -0.1322   -2.1356 H         1 <0>         0.1381
     28 H5          0.0271   -2.6168   -2.1375 H         1 <0>         0.1397
     29 H6          0.0536   -3.8100    0.0406 H         1 <0>         0.1390
     30 H7         -1.4495   -5.3020    5.3697 H         1 <0>         0.0940
     31 H8         -0.0959   -6.2238    4.6505 H         1 <0>         0.0970
     32 H9          0.0018   -5.1836    7.2167 H         1 <0>         0.1065
     33 H10         1.4675   -5.3727    6.1972 H         1 <0>         0.0907
     34 H11         1.5824   -3.0277    6.4474 H         1 <0>         0.0998
     35 H12        -0.1783   -2.8809    6.7445 H         1 <0>         0.1004
     36 H13         3.0590   -1.5233    4.4190 H         1 <0>         0.1345
     37 H14         4.0042    0.7224    4.7544 H         1 <0>         0.1440
     38 H15        -0.7308    0.2263    3.4538 H         1 <0>         0.1434
@<TRIPOS>BOND
     1    1    2 1
     2    1   24 1
     3    1   25 1
     4    1   26 1
     5    2    7 ar
     6    2    3 ar
     7    3    4 ar
     8    3   27 1
     9    4    5 ar
    10    4   28 1
    11    5    6 ar
    12    5   29 1
    13    6    7 ar
    14    6    8 1
    15    8   12 2
    16    8    9 1
    17    9   10 2
    18    9   16 1
    19   10   15 1
    20   10   11 1
    21   11   12 1
    22   11   13 1
    23   13   14 1
    24   13   30 1
    25   13   31 1
    26   14   15 1
    27   14   32 1
    28   14   33 1
    29   15   34 1
    30   15   35 1
    31   16   21 ar
    32   16   17 ar
    33   17   18 ar
    34   17   36 1
    35   18   19 ar
    36   18   37 1
    37   19   20 ar
    38   19   23 1
    39   20   21 ar
    40   20   22 1
    41   21   38 1
@<TRIPOS>MOLECULE
CHEMBL330814
   39    42     0     0     0
SMALL
USER_CHARGES

@<TRIPOS>ATOM
      1 C1         -0.0184    1.5028    0.0103 C.3       1 <0>        -0.1033
      2 C2          0.0021   -0.0041    0.0020 C.ar      1 <0>         0.1330
      3 C3          0.0055   -0.6794   -1.2045 C.ar      1 <0>        -0.1668
      4 C4          0.0244   -2.0670   -1.2080 C.ar      1 <0>        -0.0715
      5 C5          0.0391   -2.7306    0.0065 C.ar      1 <0>        -0.1486
      6 C6          0.0346   -1.9865    1.1848 C.ar      1 <0>         0.2059
      7 N1          0.0218   -0.6599    1.1445 N.ar      1 <0>        -0.4560
      8 C7          0.0503   -2.6820    2.4936 C.2       1 <0>         0.1318
      9 C8          0.5276   -2.1488    3.7163 C.2       1 <0>        -0.1559
     10 C9          0.3647   -3.1080    4.6731 C.2       1 <0>         0.0754
     11 N2         -0.1897   -4.1887    4.0897 N.pl3     1 <0>        -0.3820
     12 N3         -0.3813   -3.9009    2.7275 N.2       1 <0>        -0.2528
     13 C10        -0.4019   -5.2658    5.0707 C.3       1 <0>         0.1293
     14 C11         0.4864   -4.9055    6.2806 C.3       1 <0>        -0.1319
     15 C12         0.5920   -3.3695    6.1474 C.3       1 <0>        -0.0671
     16 C13         1.1007   -0.7951    3.9192 C.ar      1 <0>        -0.0079
     17 C14         2.4380   -0.6505    4.2834 C.ar      1 <0>        -0.0932
     18 C15         2.9679    0.6091    4.4714 C.ar      1 <0>        -0.1514
     19 C16         2.1704    1.7319    4.2985 C.ar      1 <0>         0.1020
     20 C17         0.8380    1.5911    3.9358 C.ar      1 <0>        -0.1491
     21 C18         0.3041    0.3343    3.7403 C.ar      1 <0>        -0.0452
     22 O1          2.6950    2.9717    4.4853 O.3       1 <0>        -0.5021
     23 H1          1.0042    1.8801    0.0026 H         1 <0>         0.0782
     24 H2         -0.5455    1.8639   -0.8728 H         1 <0>         0.0757
     25 H3         -0.5286    1.8543    0.9071 H         1 <0>         0.0781
     26 H4         -0.0067   -0.1322   -2.1355 H         1 <0>         0.1370
     27 H5          0.0271   -2.6167   -2.1375 H         1 <0>         0.1389
     28 H6          0.0536   -3.8100    0.0406 H         1 <0>         0.1382
     29 H7         -1.4494   -5.3021    5.3698 H         1 <0>         0.0927
     30 H8         -0.0958   -6.2239    4.6506 H         1 <0>         0.0956
     31 H9          0.0021   -5.1835    7.2167 H         1 <0>         0.1056
     32 H10         1.4676   -5.3726    6.1970 H         1 <0>         0.0897
     33 H11         1.5827   -3.0276    6.4471 H         1 <0>         0.0980
     34 H12        -0.1780   -2.8811    6.7446 H         1 <0>         0.0987
     35 H13         3.0589   -1.5238    4.4188 H         1 <0>         0.1194
     36 H14         4.0042    0.7218    4.7537 H         1 <0>         0.1247
     37 H15         0.2198    2.4665    3.8023 H         1 <0>         0.1251
     38 H16        -0.7315    0.2255    3.4537 H         1 <0>         0.1239
     39 H17         3.0759    3.3619    3.6867 H         1 <0>         0.3881
@<TRIPOS>BOND
     1    1    2 1
     2    1   23 1
     3    1   24 1
     4    1   25 1
     5    2    7 ar
     6    2    3 ar
     7    3    4 ar
     8    3   26 1
     9    4    5 ar
    10    4   27 1
    11    5    6 ar
    12    5   28 1
    13    6    7 ar
    14    6    8 1
    15    8   12 2
    16    8    9 1
    17    9   10 2
    18    9   16 1
    19   10   15 1
    20   10   11 1
    21   11   12 1
    22   11   13 1
    23   13   14 1
    24   13   29 1
    25   13   30 1
    26   14   15 1
    27   14   31 1
    28   14   32 1
    29   15   33 1
    30   15   34 1
    31   16   21 ar
    32   16   17 ar
    33   17   18 ar
    34   17   35 1
    35   18   19 ar
    36   18   36 1
    37   19   20 ar
    38   19   22 1
    39   20   21 ar
    40   20   37 1
    41   21   38 1
    42   22   39 1
@<TRIPOS>MOLECULE
CHEMBL409356
   64    69     0     0     0
SMALL
USER_CHARGES

@<TRIPOS>ATOM
      1 C1         -0.0178    1.4648    0.0101 C.3       1 <0>        -0.0470
      2 N1          0.0021   -0.0041    0.0020 N.4       1 <0>        -0.3858
      3 C2          0.6802   -0.4759   -1.2119 C.3       1 <0>        -0.0208
      4 C3          0.6009   -2.0047   -1.2786 C.3       1 <0>         0.0897
      5 N2          1.1441   -2.5548   -0.0269 N.am      1 <0>        -0.6348
      6 C4          0.6349   -2.0181    1.2446 C.3       1 <0>         0.0812
      7 C5          0.7126   -0.4887    1.1922 C.3       1 <0>        -0.0227
      8 C6          2.0812   -3.5232   -0.0447 C.2       1 <0>         0.5253
      9 O1          2.4885   -3.9536   -1.1029 O.2       1 <0>        -0.4779
     10 C7          2.6228   -4.0715    1.2503 C.3       1 <0>         0.0419
     11 O2          3.5962   -5.0797    0.9707 O.3       1 <0>        -0.2871
     12 C8          4.1862   -5.6799    2.0369 C.ar      1 <0>         0.1303
     13 C9          3.8221   -5.3004    3.3324 C.ar      1 <0>        -0.2028
     14 C10         4.3984   -5.8866    4.4172 C.ar      1 <0>        -0.0386
     15 C11         5.3684   -6.8824    4.2392 C.ar      1 <0>        -0.1148
     16 C12         5.9872   -7.5128    5.3485 C.ar      1 <0>         0.0924
     17 C13         6.9398   -8.4916    5.0907 C.ar      1 <0>        -0.1561
     18 C14         7.2517   -8.8173    3.7777 C.ar      1 <0>         0.1548
     19 N3          6.6714   -8.2255    2.7602 N.ar      1 <0>        -0.4847
     20 C15         5.7454   -7.2750    2.9322 C.ar      1 <0>         0.1696
     21 C16         5.1314   -6.6584    1.8296 C.ar      1 <0>        -0.1263
     22 C17         5.6307   -7.1403    6.7354 C.2       1 <0>        -0.1782
     23 C18         4.6511   -7.7039    7.5070 C.2       1 <0>         0.0882
     24 N4          4.6491   -7.0897    8.7028 N.pl3     1 <0>        -0.3834
     25 N5          5.6458   -6.0986    8.7110 N.2       1 <0>        -0.2444
     26 C19         6.2610   -6.1024    7.5507 C.2       1 <0>         0.1413
     27 C20         7.3797   -5.2195    7.1433 C.ar      1 <0>         0.1964
     28 C21         7.5450   -3.9821    7.7636 C.ar      1 <0>        -0.1415
     29 C22         8.5939   -3.1688    7.3724 C.ar      1 <0>        -0.0750
     30 C23         9.4448   -3.6196    6.3726 C.ar      1 <0>        -0.1627
     31 C24         9.2224   -4.8581    5.8003 C.ar      1 <0>         0.1059
     32 N6          8.2189   -5.6156    6.1949 N.ar      1 <0>        -0.4561
     33 C25         3.6159   -7.6614    9.5852 C.3       1 <0>         0.1274
     34 C26         2.6562   -8.4326    8.6547 C.3       1 <0>        -0.1311
     35 C27         3.5807   -8.7750    7.4648 C.3       1 <0>        -0.0696
     36 H1          1.0047    1.8421    0.0024 H         1 <0>         0.1228
     37 H2         -0.5450    1.8259   -0.8730 H         1 <0>         0.1271
     38 H3         -0.5280    1.8163    0.9069 H         1 <0>         0.1265
     39 H4          0.1945   -0.0482   -2.0890 H         1 <0>         0.1470
     40 H5          1.7251   -0.1668   -1.1880 H         1 <0>         0.1347
     41 H6         -0.4382   -2.3129   -1.3936 H         1 <0>         0.0989
     42 H7          1.1887   -2.3654   -2.1226 H         1 <0>         0.1386
     43 H8         -0.4008   -2.3277    1.3844 H         1 <0>         0.1035
     44 H9          1.2452   -2.3877    2.0687 H         1 <0>         0.1277
     45 H10         1.7566   -0.1792    1.1434 H         1 <0>         0.1354
     46 H11         0.2508   -0.0704    2.0865 H         1 <0>         0.1473
     47 H12         3.0871   -3.2663    1.8198 H         1 <0>         0.0953
     48 H13         1.8080   -4.5041    1.8308 H         1 <0>         0.0985
     49 H14         3.0753   -4.5332    3.4740 H         1 <0>         0.1251
     50 H15         4.1092   -5.5847    5.4130 H         1 <0>         0.1282
     51 H16         7.4349   -8.9958    5.9075 H         1 <0>         0.1364
     52 H17         7.9933   -9.5792    3.5882 H         1 <0>         0.1626
     53 H18         5.4023   -6.9478    0.8250 H         1 <0>         0.1455
     54 H19         6.8637   -3.6624    8.5382 H         1 <0>         0.1389
     55 H20         8.7471   -2.2048    7.8345 H         1 <0>         0.1399
     56 H21        10.2726   -3.0084    6.0447 H         1 <0>         0.1397
     57 H22         9.8824   -5.2115    5.0219 H         1 <0>         0.1612
     58 H23         4.0701   -8.3417   10.3056 H         1 <0>         0.0956
     59 H24         3.0803   -6.8657   10.1031 H         1 <0>         0.0970
     60 H25         2.2889   -9.3384    9.1370 H         1 <0>         0.1081
     61 H26         1.8286   -7.7990    8.3359 H         1 <0>         0.0891
     62 H27         3.0288   -8.7263    6.5261 H         1 <0>         0.0975
     63 H28         4.0232   -9.7623    7.5976 H         1 <0>         0.1024
     64 H29        -0.9449   -0.3521    0.0122 H         1 <0>         0.4265
@<TRIPOS>BOND
     1    1    2 1
     2    1   36 1
     3    1   37 1
     4    1   38 1
     5    2    7 1
     6    2    3 1
     7    2   64 1
     8    3    4 1
     9    3   39 1
    10    3   40 1
    11    4    5 1
    12    4   41 1
    13    4   42 1
    14    5    6 1
    15    5    8 am
    16    6    7 1
    17    6   43 1
    18    6   44 1
    19    7   45 1
    20    7   46 1
    21    8    9 2
    22    8   10 1
    23   10   11 1
    24   10   47 1
    25   10   48 1
    26   11   12 1
    27   12   21 ar
    28   12   13 ar
    29   13   14 ar
    30   13   49 1
    31   14   15 ar
    32   14   50 1
    33   15   20 ar
    34   15   16 ar
    35   16   17 ar
    36   16   22 1
    37   17   18 ar
    38   17   51 1
    39   18   19 ar
    40   18   52 1
    41   19   20 ar
    42   20   21 ar
    43   21   53 1
    44   22   26 1
    45   22   23 2
    46   23   35 1
    47   23   24 1
    48   24   25 1
    49   24   33 1
    50   25   26 2
    51   26   27 1
    52   27   32 ar
    53   27   28 ar
    54   28   29 ar
    55   28   54 1
    56   29   30 ar
    57   29   55 1
    58   30   31 ar
    59   30   56 1
    60   31   32 ar
    61   31   57 1
    62   33   34 1
    63   33   58 1
    64   33   59 1
    65   34   35 1
    66   34   60 1
    67   34   61 1
    68   35   62 1
    69   35   63 1
@<TRIPOS>MOLECULE
CHEMBL409356__1
   63    68     0     0     0
SMALL
USER_CHARGES

@<TRIPOS>ATOM
      1 C1         -0.0178    1.4648    0.0101 C.3       1 <0>         0.0242
      2 N1          0.0021   -0.0041    0.0020 N.3       1 <0>        -0.5432
      3 C2          0.5920   -0.5157   -1.2422 C.3       1 <0>         0.0392
      4 C3          0.4303   -2.0387   -1.2918 C.3       1 <0>         0.1179
      5 N2          0.9912   -2.6085   -0.0572 N.am      1 <0>        -0.6138
      6 C4          0.5491   -2.0510    1.2300 C.3       1 <0>         0.1081
      7 C5          0.7062   -0.5275    1.1802 C.3       1 <0>         0.0379
      8 C6          1.8862   -3.6152   -0.1043 C.2       1 <0>         0.5191
      9 O1          2.2393   -4.0631   -1.1746 O.2       1 <0>        -0.5103
     10 C7          2.4481   -4.1841    1.1730 C.3       1 <0>         0.0424
     11 O2          3.3687   -5.2322    0.8631 O.3       1 <0>        -0.2859
     12 C8          3.9691   -5.8553    1.9103 C.ar      1 <0>         0.1412
     13 C9          3.6651   -5.4597    3.2164 C.ar      1 <0>        -0.1976
     14 C10         4.2530   -6.0682    4.2826 C.ar      1 <0>        -0.0437
     15 C11         5.1742   -7.1036    4.0743 C.ar      1 <0>        -0.1165
     16 C12         5.8035   -7.7581    5.1636 C.ar      1 <0>         0.0911
     17 C13         6.7054   -8.7759    4.8762 C.ar      1 <0>        -0.1614
     18 C14         6.9589   -9.1156    3.5542 C.ar      1 <0>         0.1491
     19 N3          6.3696   -8.5012    2.5554 N.ar      1 <0>        -0.4845
     20 C15         5.4902   -7.5129    2.7563 C.ar      1 <0>         0.1704
     21 C16         4.8653   -6.8725    1.6736 C.ar      1 <0>        -0.1359
     22 C17         5.5099   -7.3697    6.5608 C.2       1 <0>        -0.1733
     23 C18         4.5345   -7.8913    7.3665 C.2       1 <0>         0.0866
     24 N4          4.5984   -7.2763    8.5601 N.pl3     1 <0>        -0.3848
     25 N5          5.6351   -6.3276    8.5323 N.2       1 <0>        -0.2460
     26 C19         6.2100   -6.3581    7.3519 C.2       1 <0>         0.1412
     27 C20         7.3499   -5.5228    6.9048 C.ar      1 <0>         0.1975
     28 C21         7.5873   -4.2927    7.5161 C.ar      1 <0>        -0.1413
     29 C22         8.6553   -3.5242    7.0878 C.ar      1 <0>        -0.0752
     30 C23         9.4523   -4.0109    6.0610 C.ar      1 <0>        -0.1636
     31 C24         9.1595   -5.2397    5.4994 C.ar      1 <0>         0.1059
     32 N6          8.1394   -5.9544    5.9295 N.ar      1 <0>        -0.4550
     33 C25         3.5728   -7.8037    9.4783 C.3       1 <0>         0.1288
     34 C26         2.5510   -8.5353    8.5826 C.3       1 <0>        -0.1316
     35 C27         3.4196   -8.9171    7.3630 C.3       1 <0>        -0.0691
     36 H1          1.0047    1.8421    0.0024 H         1 <0>         0.0273
     37 H2         -0.5450    1.8259   -0.8730 H         1 <0>         0.0723
     38 H3         -0.5280    1.8163    0.9069 H         1 <0>         0.0719
     39 H4          0.0842   -0.0681   -2.0965 H         1 <0>         0.0919
     40 H5          1.6514   -0.2612   -1.2740 H         1 <0>         0.0407
     41 H6         -0.6272   -2.2925   -1.3646 H         1 <0>         0.0801
     42 H7          0.9653   -2.4359   -2.1544 H         1 <0>         0.0995
     43 H8         -0.4970   -2.3059    1.3995 H         1 <0>         0.0852
     44 H9          1.1627   -2.4563    2.0346 H         1 <0>         0.0862
     45 H10         1.7640   -0.2728    1.1147 H         1 <0>         0.0410
     46 H11         0.2811   -0.0884    2.0828 H         1 <0>         0.0917
     47 H12         2.9644   -3.3983    1.7245 H         1 <0>         0.0924
     48 H13         1.6362   -4.5819    1.7817 H         1 <0>         0.0947
     49 H14         2.9560   -4.6620    3.3812 H         1 <0>         0.1294
     50 H15         4.0104   -5.7536    5.2868 H         1 <0>         0.1269
     51 H16         7.2065   -9.2994    5.6769 H         1 <0>         0.1331
     52 H17         7.6614   -9.9079    3.3416 H         1 <0>         0.1591
     53 H18         5.0898   -7.1739    0.6611 H         1 <0>         0.1447
     54 H19         6.9464   -3.9442    8.3126 H         1 <0>         0.1389
     55 H20         8.8638   -2.5668    7.5421 H         1 <0>         0.1394
     56 H21        10.2932   -3.4349    5.7038 H         1 <0>         0.1389
     57 H22         9.7776   -5.6210    4.7001 H         1 <0>         0.1607
     58 H23         4.0225   -8.5016   10.1846 H         1 <0>         0.0936
     59 H24         3.0885   -6.9859   10.0121 H         1 <0>         0.0963
     60 H25         2.1630   -9.4246    9.0792 H         1 <0>         0.1066
     61 H26         1.7400   -7.8682    8.2904 H         1 <0>         0.0901
     62 H27         2.8388   -8.8464    6.4434 H         1 <0>         0.0984
     63 H28         3.8251   -9.9217    7.4831 H         1 <0>         0.1009
@<TRIPOS>BOND
     1    1    2 1
     2    1   36 1
     3    1   37 1
     4    1   38 1
     5    2    7 1
     6    2    3 1
     7    3    4 1
     8    3   39 1
     9    3   40 1
    10    4    5 1
    11    4   41 1
    12    4   42 1
    13    5    6 1
    14    5    8 am
    15    6    7 1
    16    6   43 1
    17    6   44 1
    18    7   45 1
    19    7   46 1
    20    8    9 2
    21    8   10 1
    22   10   11 1
    23   10   47 1
    24   10   48 1
    25   11   12 1
    26   12   21 ar
    27   12   13 ar
    28   13   14 ar
    29   13   49 1
    30   14   15 ar
    31   14   50 1
    32   15   20 ar
    33   15   16 ar
    34   16   17 ar
    35   16   22 1
    36   17   18 ar
    37   17   51 1
    38   18   19 ar
    39   18   52 1
    40   19   20 ar
    41   20   21 ar
    42   21   53 1
    43   22   26 1
    44   22   23 2
    45   23   35 1
    46   23   24 1
    47   24   25 1
    48   24   33 1
    49   25   26 2
    50   26   27 1
    51   27   32 ar
    52   27   28 ar
    53   28   29 ar
    54   28   54 1
    55   29   30 ar
    56   29   55 1
    57   30   31 ar
    58   30   56 1
    59   31   32 ar
    60   31   57 1
    61   33   34 1
    62   33   58 1
    63   33   59 1
    64   34   35 1
    65   34   60 1
    66   34   61 1
    67   35   62 1
    68   35   63 1
@<TRIPOS>MOLECULE
CHEMBL594371
   46    49     0     0     0
SMALL
USER_CHARGES

@<TRIPOS>ATOM
      1 C1         -0.1923    1.5254   -0.4357 C.3       1 <0>        -0.1456
      2 C2         -0.1200    0.0027   -0.3057 C.3       1 <0>        -0.0863
      3 C3          0.6409   -0.5658   -1.4757 C.ar      1 <0>        -0.0785
      4 C4         -0.0334   -0.9222   -2.6303 C.ar      1 <0>        -0.1177
      5 C5          0.6578   -1.4447   -3.7087 C.ar      1 <0>        -0.1164
      6 C6          2.0255   -1.6138   -3.6389 C.ar      1 <0>        -0.1103
      7 C7          2.7112   -1.2564   -2.4777 C.ar      1 <0>         0.0130
      8 C8          2.0088   -0.7246   -1.3954 C.ar      1 <0>        -0.0969
      9 C9          4.1782   -1.4351   -2.3961 C.2       1 <0>        -0.2490
     10 C10         5.1362   -0.7612   -3.1373 C.2       1 <0>         0.2266
     11 N1          6.3709   -1.2239   -2.7548 N.pl3     1 <0>        -0.3893
     12 N2          6.2145   -2.1988   -1.7647 N.am      1 <0>        -0.4144
     13 C11         4.8996   -2.3542   -1.5116 C.2       1 <0>         0.5417
     14 O1          4.4042   -3.1173   -0.7023 O.2       1 <0>        -0.5314
     15 C12         7.3016   -2.9269   -1.1057 C.3       1 <0>         0.0994
     16 C13         7.6521   -0.7677   -3.2993 C.3       1 <0>         0.0915
     17 C14         4.8751    0.2711   -4.1577 C.ar      1 <0>        -0.0281
     18 C15         5.5008    0.1843   -5.4159 C.ar      1 <0>        -0.0882
     19 C16         5.2763    1.1222   -6.3700 C.ar      1 <0>        -0.0747
     20 C17         4.4085    2.1998   -6.1104 C.ar      1 <0>         0.0875
     21 C18         3.7711    2.2991   -4.8470 C.ar      1 <0>         0.0793
     22 C19         4.0110    1.3169   -3.8733 C.ar      1 <0>        -0.0270
     23 N3          2.9458    3.3236   -4.6017 N.ar      1 <0>        -0.4160
     24 C20         2.7339    4.2262   -5.5318 C.ar      1 <0>         0.0801
     25 C21         3.3610    4.1282   -6.7759 C.ar      1 <0>         0.0854
     26 N4          4.1762    3.1324   -7.0402 N.ar      1 <0>        -0.4257
     27 H1          0.8168    1.9373   -0.4476 H         1 <0>         0.0556
     28 H2         -0.7025    1.7871   -1.3626 H         1 <0>         0.0554
     29 H3         -0.7426    1.9366    0.4106 H         1 <0>         0.0568
     30 H4          0.3902   -0.2591    0.6213 H         1 <0>         0.0714
     31 H5         -1.1291   -0.4093   -0.2938 H         1 <0>         0.0714
     32 H6         -1.1039   -0.7922   -2.6897 H         1 <0>         0.1192
     33 H7          0.1257   -1.7213   -4.6069 H         1 <0>         0.1203
     34 H8          2.5639   -2.0221   -4.4814 H         1 <0>         0.1166
     35 H9          2.5345   -0.4420   -0.4953 H         1 <0>         0.1188
     36 H10         7.6196   -2.3799   -0.2182 H         1 <0>         0.0705
     37 H11         6.9519   -3.9178   -0.8159 H         1 <0>         0.0998
     38 H12         8.1421   -3.0248   -1.7927 H         1 <0>         0.0797
     39 H13         8.0612    0.0142   -2.6595 H         1 <0>         0.0748
     40 H14         8.3485   -1.6053   -3.3399 H         1 <0>         0.0861
     41 H15         7.5001   -0.3727   -4.3038 H         1 <0>         0.0998
     42 H16         6.1681   -0.6390   -5.6240 H         1 <0>         0.1400
     43 H17         5.7643    1.0422   -7.3301 H         1 <0>         0.1476
     44 H18         3.5293    1.3779   -2.9086 H         1 <0>         0.1489
     45 H19         2.0675    5.0525   -5.3328 H         1 <0>         0.1794
     46 H20         3.1741    4.8796   -7.5288 H         1 <0>         0.1791
@<TRIPOS>BOND
     1    1    2 1
     2    1   27 1
     3    1   28 1
     4    1   29 1
     5    2    3 1
     6    2   30 1
     7    2   31 1
     8    3    8 ar
     9    3    4 ar
    10    4    5 ar
    11    4   32 1
    12    5    6 ar
    13    5   33 1
    14    6    7 ar
    15    6   34 1
    16    7    8 ar
    17    7    9 1
    18    8   35 1
    19    9   13 1
    20    9   10 2
    21   10   11 1
    22   10   17 1
    23   11   12 1
    24   11   16 1
    25   12   13 am
    26   12   15 1
    27   13   14 2
    28   15   36 1
    29   15   37 1
    30   15   38 1
    31   16   39 1
    32   16   40 1
    33   16   41 1
    34   17   22 ar
    35   17   18 ar
    36   18   19 ar
    37   18   42 1
    38   19   20 ar
    39   19   43 1
    40   20   26 ar
    41   20   21 ar
    42   21   22 ar
    43   21   23 ar
    44   22   44 1
    45   23   24 ar
    46   24   25 ar
    47   24   45 1
    48   25   26 ar
    49   25   46 1
@<TRIPOS>MOLECULE
CHEMBL261674
   68    73     0     0     0
SMALL
USER_CHARGES

@<TRIPOS>ATOM
      1 C1         -0.0178    1.4648    0.0101 C.3       1 <0>        -0.0459
      2 N1          0.0021   -0.0041    0.0020 N.4       1 <0>        -0.3886
      3 C2         -1.3761   -0.5122    0.0107 C.3       1 <0>        -0.0025
      4 C3         -1.3560   -2.0421   -0.0167 C.3       1 <0>         0.0253
      5 N2         -0.6244   -2.5407    1.1564 N.3       1 <0>        -0.5382
      6 C4          0.7499   -2.0201    1.1745 C.3       1 <0>         0.0189
      7 C5          0.7125   -0.4904    1.1921 C.3       1 <0>        -0.0027
      8 C6         -0.6316   -4.0091    1.1963 C.3       1 <0>         0.0585
      9 C7         -0.0856   -4.4853    2.5439 C.3       1 <0>        -0.1184
     10 C8         -0.0931   -6.0148    2.5855 C.3       1 <0>         0.0596
     11 O1          0.4169   -6.4595    3.8441 O.3       1 <0>        -0.3114
     12 C9          0.4779   -7.8016    4.0453 C.ar      1 <0>         0.1391
     13 C10         0.0552   -8.6716    3.0357 C.ar      1 <0>        -0.1993
     14 C11         0.1064  -10.0202    3.2127 C.ar      1 <0>        -0.0415
     15 C12         0.5874  -10.5479    4.4186 C.ar      1 <0>        -0.1163
     16 C13         0.6539  -11.9479    4.6340 C.ar      1 <0>         0.0931
     17 C14         1.1430  -12.3942    5.8561 C.ar      1 <0>        -0.1592
     18 C15         1.5449  -11.4721    6.8129 C.ar      1 <0>         0.1524
     19 N3          1.4775  -10.1788    6.6005 N.ar      1 <0>        -0.4868
     20 C16         1.0181   -9.6769    5.4483 C.ar      1 <0>         0.1691
     21 C17         0.9603   -8.2893    5.2384 C.ar      1 <0>        -0.1384
     22 C18         0.2164  -12.9026    3.5917 C.2       1 <0>        -0.1770
     23 C19         0.9928  -13.4495    2.6063 C.2       1 <0>         0.0869
     24 N4          0.2242  -14.2694    1.8687 N.pl3     1 <0>        -0.3838
     25 N5         -1.0851  -14.2539    2.3798 N.2       1 <0>        -0.2445
     26 C20        -1.1285  -13.4506    3.4179 C.2       1 <0>         0.1416
     27 C21        -2.3164  -13.1527    4.2528 C.ar      1 <0>         0.1963
     28 C22        -3.5941  -13.3033    3.7161 C.ar      1 <0>        -0.1411
     29 C23        -4.6933  -13.0213    4.5078 C.ar      1 <0>        -0.0748
     30 C24        -4.4794  -12.5974    5.8121 C.ar      1 <0>        -0.1627
     31 C25        -3.1848  -12.4698    6.2799 C.ar      1 <0>         0.1054
     32 N6         -2.1552  -12.7500    5.5068 N.ar      1 <0>        -0.4561
     33 C26         1.0098  -14.8978    0.7912 C.3       1 <0>         0.1277
     34 C27         2.2880  -14.0434    0.6576 C.3       1 <0>        -0.1313
     35 C28         2.4113  -13.4396    2.0746 C.3       1 <0>        -0.0689
     36 H1          1.0047    1.8421    0.0024 H         1 <0>         0.1245
     37 H2         -0.5450    1.8259   -0.8730 H         1 <0>         0.1243
     38 H3         -0.5280    1.8163    0.9069 H         1 <0>         0.1235
     39 H4         -1.8832   -0.1716    0.9134 H         1 <0>         0.1383
     40 H5         -1.9060   -0.1400   -0.8661 H         1 <0>         0.1364
     41 H6         -2.3783   -2.4196    0.0047 H         1 <0>         0.1244
     42 H7         -0.8610   -2.3831   -0.9260 H         1 <0>         0.0613
     43 H8          1.2641   -2.3816    2.0650 H         1 <0>         0.1272
     44 H9          1.2796   -2.3607    0.2848 H         1 <0>         0.0618
     45 H10         1.7310   -0.1020    1.1912 H         1 <0>         0.1365
     46 H11         0.1947   -0.1499    2.0888 H         1 <0>         0.1385
     47 H12        -1.6519   -4.3710    1.0694 H         1 <0>         0.0929
     48 H13        -0.0057   -4.3975    0.3929 H         1 <0>         0.0508
     49 H14         0.9347   -4.1235    2.6709 H         1 <0>         0.0759
     50 H15        -0.7115   -4.0969    3.3473 H         1 <0>         0.0895
     51 H16        -1.1134   -6.3766    2.4585 H         1 <0>         0.0656
     52 H17         0.5328   -6.4032    1.7821 H         1 <0>         0.0624
     53 H18        -0.3164   -8.2690    2.1050 H         1 <0>         0.1275
     54 H19        -0.2233  -10.6822    2.4256 H         1 <0>         0.1264
     55 H20         1.2098  -13.4526    6.0603 H         1 <0>         0.1350
     56 H21         1.9234  -11.8293    7.7593 H         1 <0>         0.1610
     57 H22         1.2888   -7.6090    6.0102 H         1 <0>         0.1421
     58 H23        -3.7242  -13.6350    2.6965 H         1 <0>         0.1390
     59 H24        -5.6954  -13.1284    4.1195 H         1 <0>         0.1401
     60 H25        -5.3164  -12.3691    6.4553 H         1 <0>         0.1397
     61 H26        -3.0151  -12.1398    7.2942 H         1 <0>         0.1609
     62 H27         1.2677  -15.9220    1.0610 H         1 <0>         0.0952
     63 H28         0.4477  -14.8835   -0.1425 H         1 <0>         0.0969
     64 H29         3.1510  -14.6663    0.4223 H         1 <0>         0.1077
     65 H30         2.1580  -13.2608   -0.0899 H         1 <0>         0.0891
     66 H31         2.7925  -12.4197    2.0233 H         1 <0>         0.0970
     67 H32         3.0568  -14.0583    2.6980 H         1 <0>         0.1018
     68 H33         0.4748   -0.3293   -0.8280 H         1 <0>         0.4222
@<TRIPOS>BOND
     1    1    2 1
     2    1   36 1
     3    1   37 1
     4    1   38 1
     5    2    7 1
     6    2    3 1
     7    2   68 1
     8    3    4 1
     9    3   39 1
    10    3   40 1
    11    4    5 1
    12    4   41 1
    13    4   42 1
    14    5    6 1
    15    5    8 1
    16    6    7 1
    17    6   43 1
    18    6   44 1
    19    7   45 1
    20    7   46 1
    21    8    9 1
    22    8   47 1
    23    8   48 1
    24    9   10 1
    25    9   49 1
    26    9   50 1
    27   10   11 1
    28   10   51 1
    29   10   52 1
    30   11   12 1
    31   12   21 ar
    32   12   13 ar
    33   13   14 ar
    34   13   53 1
    35   14   15 ar
    36   14   54 1
    37   15   20 ar
    38   15   16 ar
    39   16   17 ar
    40   16   22 1
    41   17   18 ar
    42   17   55 1
    43   18   19 ar
    44   18   56 1
    45   19   20 ar
    46   20   21 ar
    47   21   57 1
    48   22   26 1
    49   22   23 2
    50   23   35 1
    51   23   24 1
    52   24   25 1
    53   24   33 1
    54   25   26 2
    55   26   27 1
    56   27   32 ar
    57   27   28 ar
    58   28   29 ar
    59   28   58 1
    60   29   30 ar
    61   29   59 1
    62   30   31 ar
    63   30   60 1
    64   31   32 ar
    65   31   61 1
    66   33   34 1
    67   33   62 1
    68   33   63 1
    69   34   35 1
    70   34   64 1
    71   34   65 1
    72   35   66 1
    73   35   67 1
@<TRIPOS>MOLECULE
CHEMBL261674__1
   68    73     0     0     0
SMALL
USER_CHARGES

@<TRIPOS>ATOM
      1 C1         -0.0178    1.4648    0.0101 C.3       1 <0>         0.0192
      2 N1          0.0021   -0.0041    0.0020 N.3       1 <0>        -0.5439
      3 C2         -1.3607   -0.5489   -0.0764 C.3       1 <0>         0.0239
      4 C3         -1.2932   -2.0762   -0.1426 C.3       1 <0>        -0.0017
      5 N2         -0.6107   -2.5886    1.0529 N.4       1 <0>        -0.3854
      6 C4          0.7570   -2.0553    1.1043 C.3       1 <0>        -0.0083
      7 C5          0.7065   -0.5278    1.1808 C.3       1 <0>         0.0246
      8 C6         -0.5621   -4.0557    0.9977 C.3       1 <0>        -0.0047
      9 C7          0.0360   -4.5955    2.2984 C.3       1 <0>        -0.1510
     10 C8          0.0866   -6.1236    2.2409 C.3       1 <0>         0.0630
     11 O1          0.6453   -6.6277    3.4557 O.3       1 <0>        -0.3108
     12 C9          0.7615   -7.9765    3.5679 C.ar      1 <0>         0.1331
     13 C10         0.3456   -8.7960    2.5142 C.ar      1 <0>        -0.2016
     14 C11         0.4516  -10.1501    2.6021 C.ar      1 <0>        -0.0384
     15 C12         0.9830  -10.7347    3.7597 C.ar      1 <0>        -0.1148
     16 C13         1.1073  -12.1420    3.8821 C.ar      1 <0>         0.0942
     17 C14         1.6442  -12.6461    5.0609 C.ar      1 <0>        -0.1566
     18 C15         2.0360  -11.7721    6.0659 C.ar      1 <0>         0.1550
     19 N3          1.9149  -10.4715    5.9394 N.ar      1 <0>        -0.4867
     20 C16         1.4074   -9.9152    4.8333 C.ar      1 <0>         0.1683
     21 C17         1.2925   -8.5203    4.7152 C.ar      1 <0>        -0.1319
     22 C18         0.6789  -13.0444    2.7907 C.2       1 <0>        -0.1799
     23 C19         1.4493  -13.4966    1.7540 C.2       1 <0>         0.0881
     24 N4          0.6930  -14.2970    0.9830 N.pl3     1 <0>        -0.3829
     25 N5         -0.6022  -14.3651    1.5245 N.2       1 <0>        -0.2437
     26 C20        -0.6487  -13.6321    2.6132 C.2       1 <0>         0.1417
     27 C21        -1.8249  -13.4345    3.4933 C.ar      1 <0>         0.1958
     28 C22        -3.1095  -13.6001    2.9780 C.ar      1 <0>        -0.1408
     29 C23        -4.1977  -13.4123    3.8119 C.ar      1 <0>        -0.0745
     30 C24        -3.9660  -13.0646    5.1356 C.ar      1 <0>        -0.1625
     31 C25        -2.6654  -12.9169    5.5803 C.ar      1 <0>         0.1052
     32 N6         -1.6464  -13.1068    4.7667 N.ar      1 <0>        -0.4568
     33 C26         1.4734  -14.8242   -0.1511 C.3       1 <0>         0.1271
     34 C27         2.7150  -13.9139   -0.2589 C.3       1 <0>        -0.1313
     35 C28         2.8523  -13.3975    1.1910 C.3       1 <0>        -0.0691
     36 H1          1.0047    1.8421    0.0024 H         1 <0>         0.0848
     37 H2         -0.5450    1.8259   -0.8730 H         1 <0>         0.0841
     38 H3         -0.5280    1.8163    0.9069 H         1 <0>         0.0400
     39 H4         -1.9242   -0.2477    0.8067 H         1 <0>         0.0611
     40 H5         -1.8539   -0.1676   -0.9705 H         1 <0>         0.1246
     41 H6         -2.3035   -2.4830   -0.1865 H         1 <0>         0.1368
     42 H7         -0.7413   -2.3773   -1.0330 H         1 <0>         0.1386
     43 H8          1.2666   -2.4465    1.9848 H         1 <0>         0.1383
     44 H9          1.2983   -2.3564    0.2075 H         1 <0>         0.1391
     45 H10         1.7215   -0.1310    1.2040 H         1 <0>         0.1246
     46 H11         0.1771   -0.2262    2.0846 H         1 <0>         0.0613
     47 H12        -1.5711   -4.4482    0.8715 H         1 <0>         0.1357
     48 H13         0.0569   -4.3674    0.1563 H         1 <0>         0.1352
     49 H14         1.0451   -4.2031    2.4246 H         1 <0>         0.0999
     50 H15        -0.5829   -4.2839    3.1397 H         1 <0>         0.0994
     51 H16        -0.9224   -6.5160    2.1146 H         1 <0>         0.0723
     52 H17         0.7056   -6.4352    1.3995 H         1 <0>         0.0728
     53 H18        -0.0647   -8.3495    1.6205 H         1 <0>         0.1270
     54 H19         0.1266  -10.7727    1.7816 H         1 <0>         0.1279
     55 H20         1.7557  -13.7120    5.1944 H         1 <0>         0.1366
     56 H21         2.4520  -12.1740    6.9779 H         1 <0>         0.1625
     57 H22         1.6152   -7.8785    5.5216 H         1 <0>         0.1429
     58 H23        -3.2535  -13.8708    1.9425 H         1 <0>         0.1393
     59 H24        -5.2048  -13.5332    3.4411 H         1 <0>         0.1404
     60 H25        -4.7940  -12.9106    5.8117 H         1 <0>         0.1399
     61 H26        -2.4819  -12.6461    6.6095 H         1 <0>         0.1610
     62 H27         1.7762  -15.8526    0.0455 H         1 <0>         0.0959
     63 H28         0.8872  -14.7721   -1.0685 H         1 <0>         0.0975
     64 H29         3.5942  -14.4864   -0.5544 H         1 <0>         0.1083
     65 H30         2.5365  -13.0908   -0.9509 H         1 <0>         0.0893
     66 H31         3.1937  -12.3624    1.1970 H         1 <0>         0.0970
     67 H32         3.5363  -14.0293    1.7576 H         1 <0>         0.1023
     68 H33        -1.1152   -2.2999    1.8777 H         1 <0>         0.4221
@<TRIPOS>BOND
     1    1    2 1
     2    1   36 1
     3    1   37 1
     4    1   38 1
     5    2    7 1
     6    2    3 1
     7    3    4 1
     8    3   39 1
     9    3   40 1
    10    4    5 1
    11    4   41 1
    12    4   42 1
    13    5    6 1
    14    5    8 1
    15    5   68 1
    16    6    7 1
    17    6   43 1
    18    6   44 1
    19    7   45 1
    20    7   46 1
    21    8    9 1
    22    8   47 1
    23    8   48 1
    24    9   10 1
    25    9   49 1
    26    9   50 1
    27   10   11 1
    28   10   51 1
    29   10   52 1
    30   11   12 1
    31   12   21 ar
    32   12   13 ar
    33   13   14 ar
    34   13   53 1
    35   14   15 ar
    36   14   54 1
    37   15   20 ar
    38   15   16 ar
    39   16   17 ar
    40   16   22 1
    41   17   18 ar
    42   17   55 1
    43   18   19 ar
    44   18   56 1
    45   19   20 ar
    46   20   21 ar
    47   21   57 1
    48   22   26 1
    49   22   23 2
    50   23   35 1
    51   23   24 1
    52   24   25 1
    53   24   33 1
    54   25   26 2
    55   26   27 1
    56   27   32 ar
    57   27   28 ar
    58   28   29 ar
    59   28   58 1
    60   29   30 ar
    61   29   59 1
    62   30   31 ar
    63   30   60 1
    64   31   32 ar
    65   31   61 1
    66   33   34 1
    67   33   62 1
    68   33   63 1
    69   34   35 1
    70   34   64 1
    71   34   65 1
    72   35   66 1
    73   35   67 1
@<TRIPOS>MOLECULE
CHEMBL565643
   37    40     0     0     0
SMALL
USER_CHARGES

@<TRIPOS>ATOM
      1 C1         -0.7014    1.9074    0.1938 C.3       1 <0>        -0.1047
      2 C2         -0.6426    0.4069    0.0677 C.ar      1 <0>        -0.0550
      3 C3         -0.8571   -0.1864   -1.1389 C.ar      1 <0>        -0.1093
      4 C4         -0.8071   -1.5712   -1.2769 C.ar      1 <0>        -0.1115
      5 C5         -0.5418   -2.3715   -0.2062 C.ar      1 <0>        -0.1034
      6 C6         -0.3153   -1.7950    1.0521 C.ar      1 <0>        -0.0991
      7 C7         -0.3602   -0.3854    1.1944 C.ar      1 <0>         0.1395
      8 N1         -0.1414    0.1724    2.3885 N.ar      1 <0>        -0.4361
      9 C8          0.1244   -0.5676    3.4526 C.ar      1 <0>         0.2672
     10 C9          0.1884   -1.9719    3.3722 C.ar      1 <0>        -0.1550
     11 C10        -0.0384   -2.5928    2.1824 C.ar      1 <0>        -0.0567
     12 C11         0.3587    0.0913    4.7481 C.2       1 <0>        -0.1802
     13 C12         1.1661    1.1847    5.0573 C.2       1 <0>         0.1893
     14 N2          1.1756    1.5563    6.3276 N.2       1 <0>        -0.5794
     15 C13         0.4612    0.9225    7.2321 C.2       1 <0>         0.3236
     16 S1         -0.3186   -0.2841    6.3568 S.3       1 <0>         0.1341
     17 N3          0.3680    1.1895    8.5847 N.pl3     1 <0>        -0.7978
     18 C14         1.9646    1.8871    4.0279 C.ar      1 <0>         0.1972
     19 C15         2.3038    3.2281    4.2107 C.ar      1 <0>        -0.1335
     20 C16         3.0509    3.8705    3.2398 C.ar      1 <0>        -0.0802
     21 C17         3.4357    3.1520    2.1158 C.ar      1 <0>        -0.1671
     22 C18         3.0650    1.8254    1.9986 C.ar      1 <0>         0.1030
     23 N4          2.3572    1.2347    2.9400 N.ar      1 <0>        -0.4508
     24 H1          0.3037    2.3193    0.1040 H         1 <0>         0.0692
     25 H2         -1.3326    2.3140   -0.5964 H         1 <0>         0.0634
     26 H3         -1.1180    2.1743    1.1651 H         1 <0>         0.0741
     27 H4         -1.0695    0.4265   -2.0024 H         1 <0>         0.1280
     28 H5         -0.9813   -2.0169   -2.2451 H         1 <0>         0.1267
     29 H6         -0.5066   -3.4442   -0.3260 H         1 <0>         0.1287
     30 H7          0.4077   -2.5553    4.2543 H         1 <0>         0.1352
     31 H8          0.0054   -3.6690    2.1028 H         1 <0>         0.1408
     32 H9          0.8702    1.9247    8.9697 H         1 <0>         0.4167
     33 H10        -0.1996    0.6417    9.1493 H         1 <0>         0.4216
     34 H11         1.9873    3.7570    5.0975 H         1 <0>         0.1381
     35 H12         3.3283    4.9080    3.3534 H         1 <0>         0.1357
     36 H13         4.0191    3.6253    1.3399 H         1 <0>         0.1346
     37 H14         3.3628    1.2643    1.1251 H         1 <0>         0.1531
@<TRIPOS>BOND
     1    1    2 1
     2    1   24 1
     3    1   25 1
     4    1   26 1
     5    2    7 ar
     6    2    3 ar
     7    3    4 ar
     8    3   27 1
     9    4    5 ar
    10    4   28 1
    11    5    6 ar
    12    5   29 1
    13    6   11 ar
    14    6    7 ar
    15    7    8 ar
    16    8    9 ar
    17    9   10 ar
    18    9   12 1
    19   10   11 ar
    20   10   30 1
    21   11   31 1
    22   12   16 1
    23   12   13 2
    24   13   14 1
    25   13   18 1
    26   14   15 2
    27   15   16 1
    28   15   17 1
    29   17   32 1
    30   17   33 1
    31   18   23 ar
    32   18   19 ar
    33   19   20 ar
    34   19   34 1
    35   20   21 ar
    36   20   35 1
    37   21   22 ar
    38   21   36 1
    39   22   23 ar
    40   22   37 1
@<TRIPOS>MOLECULE
CHEMBL556871
   36    39     0     0     0
SMALL
USER_CHARGES

@<TRIPOS>ATOM
      1 C1          0.5505    1.4613    0.0090 C.3       1 <0>        -0.1040
      2 C2          0.3283   -0.0292    0.0013 C.ar      1 <0>         0.1264
      3 C3          0.2310   -0.6985   -1.2058 C.ar      1 <0>        -0.1526
      4 C4          0.0265   -2.0703   -1.2081 C.ar      1 <0>        -0.0793
      5 C5         -0.0737   -2.7256    0.0080 C.ar      1 <0>        -0.1249
      6 C6          0.0337   -1.9886    1.1846 C.ar      1 <0>         0.1702
      7 N1          0.2346   -0.6777    1.1434 N.ar      1 <0>        -0.4393
      8 C7         -0.0716   -2.6759    2.4955 C.ar      1 <0>         0.4095
      9 N2         -0.2603   -3.9780    2.5049 N.ar      1 <0>        -0.5110
     10 C8         -0.3649   -4.6651    3.6660 C.ar      1 <0>         0.2002
     11 C9         -0.5709   -6.0840    3.8798 C.2       1 <0>        -0.1458
     12 C10        -0.6443   -6.5555    5.1375 C.2       1 <0>        -0.1047
     13 S1         -0.4374   -5.0958    6.1408 S.3       1 <0>         0.0800
     14 C11        -0.2589   -3.8984    4.8471 C.ar      1 <0>        -0.2889
     15 C12        -0.0610   -2.5274    4.7951 C.ar      1 <0>         0.4846
     16 N3          0.0349   -1.9461    3.6011 N.ar      1 <0>        -0.5076
     17 N4          0.0422   -1.7801    5.9591 N.pl3     1 <0>        -0.6400
     18 C13         0.1216   -0.3909    5.8902 C.ar      1 <0>         0.1962
     19 C14        -0.4867    0.3098    4.8492 C.ar      1 <0>        -0.1618
     20 C15        -0.3851    1.6848    4.8177 C.ar      1 <0>         0.1217
     21 N5          0.2771    2.3360    5.7554 N.ar      1 <0>        -0.4984
     22 C16         0.8663    1.7093    6.7565 C.ar      1 <0>         0.1185
     23 C17         0.8066    0.3357    6.8638 C.ar      1 <0>        -0.2063
     24 H1          1.6205    1.6692    0.0081 H         1 <0>         0.0794
     25 H2          0.0942    1.9013   -0.8778 H         1 <0>         0.0769
     26 H3          0.0975    1.8916    0.9022 H         1 <0>         0.0798
     27 H4          0.3132   -0.1580   -2.1372 H         1 <0>         0.1399
     28 H5         -0.0531   -2.6152   -2.1371 H         1 <0>         0.1425
     29 H6         -0.2333   -3.7931    0.0433 H         1 <0>         0.1494
     30 H7         -0.6648   -6.7550    3.0388 H         1 <0>         0.1573
     31 H8         -0.7931   -7.5748    5.4622 H         1 <0>         0.2060
     32 H9          0.0592   -2.2248    6.8210 H         1 <0>         0.4241
     33 H10        -1.0295   -0.2170    4.0783 H         1 <0>         0.1500
     34 H11        -0.8531    2.2357    4.0152 H         1 <0>         0.1576
     35 H12         1.3986    2.2798    7.5032 H         1 <0>         0.1586
     36 H13         1.2871   -0.1706    7.6880 H         1 <0>         0.1354
@<TRIPOS>BOND
     1    1    2 1
     2    1   24 1
     3    1   25 1
     4    1   26 1
     5    2    7 ar
     6    2    3 ar
     7    3    4 ar
     8    3   27 1
     9    4    5 ar
    10    4   28 1
    11    5    6 ar
    12    5   29 1
    13    6    7 ar
    14    6    8 1
    15    8   16 ar
    16    8    9 ar
    17    9   10 ar
    18   10   14 ar
    19   10   11 1
    20   11   12 2
    21   11   30 1
    22   12   13 1
    23   12   31 1
    24   13   14 1
    25   14   15 ar
    26   15   16 ar
    27   15   17 1
    28   17   18 1
    29   17   32 1
    30   18   23 ar
    31   18   19 ar
    32   19   20 ar
    33   19   33 1
    34   20   21 ar
    35   20   34 1
    36   21   22 ar
    37   22   23 ar
    38   22   35 1
    39   23   36 1
@<TRIPOS>MOLECULE
CHEMBL340203
   33    36     0     0     0
SMALL
USER_CHARGES

@<TRIPOS>ATOM
      1 C1         -0.0164    1.3585    0.0095 C.ar      1 <0>        -0.1322
      2 C2          1.1699    2.0882    0.0021 C.ar      1 <0>        -0.0951
      3 C3          2.3787    1.4625   -0.0133 C.ar      1 <0>        -0.1041
      4 C4          2.4370    0.0577   -0.0214 C.ar      1 <0>         0.1306
      5 C5          1.2290   -0.6802   -0.0133 C.ar      1 <0>        -0.0668
      6 C6          0.0021   -0.0041    0.0020 C.ar      1 <0>        -0.0467
      7 C7          1.2911   -2.0970   -0.0215 C.ar      1 <0>         0.0660
      8 C8          2.5477   -2.6907   -0.0371 C.ar      1 <0>        -0.1753
      9 C9          3.6839   -1.8927   -0.0441 C.ar      1 <0>         0.1302
     10 N1          3.6110   -0.5824   -0.0360 N.ar      1 <0>        -0.4790
     11 C10         0.0591   -2.9160   -0.0132 C.2       1 <0>        -0.1827
     12 C11        -0.3568   -3.7539    0.9822 C.2       1 <0>         0.0852
     13 N2         -1.5224   -4.3084    0.6017 N.pl3     1 <0>        -0.4636
     14 H1         -2.0371   -4.9437    1.1236 H         1 <0>         0.4474
     15 N3         -1.8770   -3.8272   -0.6624 N.2       1 <0>        -0.2617
     16 C12        -0.9547   -2.9811   -1.0674 C.2       1 <0>         0.1378
     17 C13        -0.9422   -2.2377   -2.3496 C.ar      1 <0>         0.1813
     18 C14        -1.6388   -2.7415   -3.4470 C.ar      1 <0>        -0.1088
     19 C15        -1.6186   -2.0373   -4.6376 C.ar      1 <0>        -0.1087
     20 C16        -0.9003   -0.8485   -4.6929 C.ar      1 <0>         0.0593
     21 C17        -0.2313   -0.4071   -3.5636 C.ar      1 <0>         0.0835
     22 N4         -0.2725   -1.0959   -2.4412 N.ar      1 <0>        -0.4235
     23 F1         -0.8551   -0.1312   -5.8368 F         1 <0>        -0.1252
     24 H2         -0.9626    1.8790    0.0259 H         1 <0>         0.1206
     25 H3          1.1302    3.1675    0.0083 H         1 <0>         0.1259
     26 H4          3.2895    2.0428   -0.0196 H         1 <0>         0.1319
     27 H5         -0.9240   -0.5597    0.0082 H         1 <0>         0.1181
     28 H6          2.6399   -3.7668   -0.0434 H         1 <0>         0.1339
     29 H7          4.6556   -2.3638   -0.0559 H         1 <0>         0.1572
     30 H8          0.1600   -3.9394    1.9122 H         1 <0>         0.1886
     31 H9         -2.1865   -3.6690   -3.3689 H         1 <0>         0.1509
     32 H10        -2.1486   -2.4032   -5.5046 H         1 <0>         0.1537
     33 H11         0.3283    0.5158   -3.6023 H         1 <0>         0.1714
@<TRIPOS>BOND
     1    1    6 ar
     2    1    2 ar
     3    1   24 1
     4    2    3 ar
     5    2   25 1
     6    3    4 ar
     7    3   26 1
     8    4   10 ar
     9    4    5 ar
    10    5    6 ar
    11    5    7 ar
    12    6   27 1
    13    7    8 ar
    14    7   11 1
    15    8    9 ar
    16    8   28 1
    17    9   10 ar
    18    9   29 1
    19   11   16 1
    20   11   12 2
    21   12   13 1
    22   12   30 1
    23   13   14 1
    24   13   15 1
    25   15   16 2
    26   16   17 1
    27   17   22 ar
    28   17   18 ar
    29   18   19 ar
    30   18   31 1
    31   19   20 ar
    32   19   32 1
    33   20   21 ar
    34   20   23 1
    35   21   22 ar
    36   21   33 1
@<TRIPOS>MOLECULE
CHEMBL340203__1
   33    36     0     0     0
SMALL
USER_CHARGES

@<TRIPOS>ATOM
      1 C1         -0.0164    1.3586    0.0095 C.ar      1 <0>        -0.1333
      2 C2          1.1699    2.0883    0.0021 C.ar      1 <0>        -0.0959
      3 C3          2.3786    1.4624   -0.0128 C.ar      1 <0>        -0.1034
      4 C4          2.4368    0.0576   -0.0208 C.ar      1 <0>         0.1303
      5 C5          1.2288   -0.6801   -0.0132 C.ar      1 <0>        -0.0640
      6 C6          0.0021   -0.0041    0.0020 C.ar      1 <0>        -0.0464
      7 C7          1.2909   -2.0973   -0.0213 C.ar      1 <0>         0.0611
      8 C8          2.5482   -2.6911   -0.0364 C.ar      1 <0>        -0.1714
      9 C9          3.6840   -1.8928   -0.0430 C.ar      1 <0>         0.1301
     10 N1          3.6109   -0.5825   -0.0349 N.ar      1 <0>        -0.4783
     11 C10         0.0598   -2.9158   -0.0135 C.2       1 <0>        -0.1612
     12 C11        -0.3608   -3.7821    1.0134 C.2       1 <0>         0.0724
     13 N2         -1.4932   -4.3270    0.6585 N.2       1 <0>        -0.2661
     14 H1         -2.6578   -4.0906   -1.0966 H         1 <0>         0.4437
     15 N3         -1.8592   -3.8456   -0.6035 N.pl3     1 <0>        -0.4595
     16 C12        -0.9024   -2.9692   -1.0168 C.2       1 <0>         0.1409
     17 C13        -0.8873   -2.2205   -2.2895 C.ar      1 <0>         0.1631
     18 C14        -1.5848   -2.7163   -3.3927 C.ar      1 <0>        -0.1270
     19 C15        -1.5620   -2.0041   -4.5778 C.ar      1 <0>        -0.1023
     20 C16        -0.8414   -0.8159   -4.6243 C.ar      1 <0>         0.0616
     21 C17        -0.1721   -0.3825   -3.4912 C.ar      1 <0>         0.0893
     22 N4         -0.2146   -1.0778   -2.3736 N.ar      1 <0>        -0.4176
     23 F1         -0.7941   -0.0912   -5.7635 F         1 <0>        -0.1225
     24 H2         -0.9626    1.8791    0.0259 H         1 <0>         0.1201
     25 H3          1.1302    3.1675    0.0079 H         1 <0>         0.1258
     26 H4          3.2895    2.0427   -0.0187 H         1 <0>         0.1320
     27 H5         -0.9240   -0.5597    0.0082 H         1 <0>         0.1165
     28 H6          2.6406   -3.7672   -0.0426 H         1 <0>         0.1355
     29 H7          4.6558   -2.3637   -0.0543 H         1 <0>         0.1578
     30 H8          0.1649   -3.9655    1.9388 H         1 <0>         0.1946
     31 H9         -2.1342   -3.6434   -3.3216 H         1 <0>         0.1444
     32 H10        -2.0917   -2.3630   -5.4479 H         1 <0>         0.1556
     33 H11         0.3888    0.5398   -3.5239 H         1 <0>         0.1741
@<TRIPOS>BOND
     1    1    6 ar
     2    1    2 ar
     3    1   24 1
     4    2    3 ar
     5    2   25 1
     6    3    4 ar
     7    3   26 1
     8    4   10 ar
     9    4    5 ar
    10    5    6 ar
    11    5    7 ar
    12    6   27 1
    13    7    8 ar
    14    7   11 1
    15    8    9 ar
    16    8   28 1
    17    9   10 ar
    18    9   29 1
    19   11   12 1
    20   11   16 2
    21   12   13 2
    22   12   30 1
    23   13   15 1
    24   14   15 1
    25   15   16 1
    26   16   17 1
    27   17   22 ar
    28   17   18 ar
    29   18   19 ar
    30   18   31 1
    31   19   20 ar
    32   19   32 1
    33   20   21 ar
    34   20   23 1
    35   21   22 ar
    36   21   33 1
@<TRIPOS>MOLECULE
CHEMBL387747
   50    54     0     0     0
SMALL
USER_CHARGES

@<TRIPOS>ATOM
      1 C1         -0.0184    1.5028    0.0103 C.3       1 <0>        -0.1076
      2 C2          0.0021   -0.0041    0.0020 C.ar      1 <0>         0.1422
      3 C3          0.0055   -0.6791   -1.2047 C.ar      1 <0>        -0.1681
      4 C4          0.0244   -2.0675   -1.2099 C.ar      1 <0>        -0.0634
      5 C5          0.0392   -2.7328    0.0024 C.ar      1 <0>        -0.1730
      6 C6          0.0347   -1.9886    1.1844 C.ar      1 <0>         0.1976
      7 N1          0.0218   -0.6596    1.1445 N.ar      1 <0>        -0.4559
      8 C7          0.0503   -2.6820    2.4864 C.2       1 <0>         0.0362
      9 C8          0.5116   -2.1797    3.6902 C.2       1 <0>         0.1020
     10 N2          0.3399   -3.1391    4.6177 N.2       1 <0>        -0.4534
     11 C9         -0.1941   -4.1920    4.0636 C.2       1 <0>         0.2092
     12 N3         -0.3969   -3.9577    2.7499 N.pl3     1 <0>        -0.5447
     13 H1         -0.7841   -4.5747    2.1092 H         1 <0>         0.4251
     14 C10        -0.5367   -5.4723    4.7810 C.3       1 <0>         0.2129
     15 N4          0.6488   -6.3310    4.8403 N.pl3     1 <0>        -0.7425
     16 C11         0.5762   -7.5799    5.4622 C.ar      1 <0>         0.2171
     17 C12        -0.6225   -8.0102    6.0198 C.ar      1 <0>        -0.1686
     18 C13        -0.6997   -9.2448    6.6362 C.ar      1 <0>        -0.0698
     19 C14         0.4126  -10.0592    6.7025 C.ar      1 <0>        -0.1264
     20 C15         1.6214   -9.6367    6.1457 C.ar      1 <0>         0.0204
     21 C16         1.6979   -8.3926    5.5183 C.ar      1 <0>        -0.1452
     22 C17         2.7772  -10.4794    6.2134 C.1       1 <0>         0.2520
     23 N5          3.6940  -11.1480    6.2672 N.1       1 <0>        -0.4131
     24 C18         1.0885   -0.8340    3.9161 C.ar      1 <0>         0.0063
     25 C19         1.8613   -0.2296    2.9248 C.ar      1 <0>        -0.0523
     26 C20         2.3978    1.0236    3.1365 C.ar      1 <0>        -0.1049
     27 C21         2.1711    1.6866    4.3335 C.ar      1 <0>         0.0396
     28 C22         1.3992    1.0876    5.3278 C.ar      1 <0>         0.0248
     29 C23         0.8552   -0.1666    5.1182 C.ar      1 <0>        -0.0682
     30 O1          1.3281    1.9361    6.3950 O.3       1 <0>        -0.3086
     31 C24         2.3982    2.8808    6.2069 C.3       1 <0>         0.2133
     32 O2          2.5823    2.9098    4.7793 O.3       1 <0>        -0.3095
     33 H2          1.0042    1.8801    0.0026 H         1 <0>         0.0824
     34 H3         -0.5455    1.8639   -0.8728 H         1 <0>         0.0776
     35 H4         -0.5286    1.8543    0.9071 H         1 <0>         0.0806
     36 H5         -0.0067   -0.1311   -2.1353 H         1 <0>         0.1393
     37 H6          0.0270   -2.6159   -2.1403 H         1 <0>         0.1396
     38 H7          0.0536   -3.8122    0.0348 H         1 <0>         0.1295
     39 H8         -0.8705   -5.2435    5.7931 H         1 <0>         0.0999
     40 H9         -1.3325   -5.9881    4.2437 H         1 <0>         0.0818
     41 H10         1.4841   -6.0325    4.4478 H         1 <0>         0.4057
     42 H11        -1.4963   -7.3774    5.9714 H         1 <0>         0.1293
     43 H12        -1.6336   -9.5733    7.0678 H         1 <0>         0.1343
     44 H13         0.3482  -11.0231    7.1854 H         1 <0>         0.1302
     45 H14         2.6287   -8.0622    5.0815 H         1 <0>         0.1302
     46 H15         2.0399   -0.7428    1.9915 H         1 <0>         0.1288
     47 H16         2.9966    1.4897    2.3679 H         1 <0>         0.1339
     48 H17         0.2535   -0.6301    5.8860 H         1 <0>         0.1379
     49 H18         2.1096    3.8649    6.5760 H         1 <0>         0.1315
     50 H19         3.3053    2.5356    6.7030 H         1 <0>         0.0840
@<TRIPOS>BOND
     1    1    2 1
     2    1   33 1
     3    1   34 1
     4    1   35 1
     5    2    7 ar
     6    2    3 ar
     7    3    4 ar
     8    3   36 1
     9    4    5 ar
    10    4   37 1
    11    5    6 ar
    12    5   38 1
    13    6    7 ar
    14    6    8 1
    15    8   12 1
    16    8    9 2
    17    9   10 1
    18    9   24 1
    19   10   11 2
    20   11   12 1
    21   11   14 1
    22   12   13 1
    23   14   15 1
    24   14   39 1
    25   14   40 1
    26   15   16 1
    27   15   41 1
    28   16   21 ar
    29   16   17 ar
    30   17   18 ar
    31   17   42 1
    32   18   19 ar
    33   18   43 1
    34   19   20 ar
    35   19   44 1
    36   20   21 ar
    37   20   22 1
    38   21   45 1
    39   22   23 3
    40   24   29 ar
    41   24   25 ar
    42   25   26 ar
    43   25   46 1
    44   26   27 ar
    45   26   47 1
    46   27   32 1
    47   27   28 ar
    48   28   29 ar
    49   28   30 1
    50   29   48 1
    51   30   31 1
    52   31   32 1
    53   31   49 1
    54   31   50 1
@<TRIPOS>MOLECULE
CHEMBL387747__1
   51    55     0     0     0
SMALL
USER_CHARGES

@<TRIPOS>ATOM
      1 C1         -0.0184    1.5028    0.0103 C.3       1 <0>        -0.1130
      2 C2          0.0021   -0.0041    0.0020 C.ar      1 <0>         0.1507
      3 C3          0.0055   -0.6791   -1.2047 C.ar      1 <0>        -0.1364
      4 C4          0.0244   -2.0675   -1.2099 C.ar      1 <0>        -0.0594
      5 C5          0.0392   -2.7328    0.0024 C.ar      1 <0>        -0.1518
      6 C6          0.0347   -1.9886    1.1844 C.ar      1 <0>         0.1526
      7 N1          0.0218   -0.6596    1.1445 N.ar      1 <0>        -0.4475
      8 C7          0.0503   -2.6820    2.4864 C.2       1 <0>         0.1265
      9 C8          0.5116   -2.1797    3.6902 C.2       1 <0>         0.1375
     10 N2          0.3399   -3.1391    4.6177 N.pl3     1 <0>        -0.4604
     11 C9         -0.1941   -4.1920    4.0636 C.cat     1 <0>         0.3209
     12 N3         -0.3969   -3.9577    2.7499 N.pl3     1 <0>        -0.4967
     13 H1         -0.7841   -4.5747    2.1092 H         1 <0>         0.4626
     14 C10        -0.5367   -5.4723    4.7810 C.3       1 <0>         0.1805
     15 N4         -1.5209   -6.2229    3.9974 N.pl3     1 <0>        -0.7589
     16 C11        -1.9944   -7.4518    4.4635 C.ar      1 <0>         0.1970
     17 C12        -1.5360   -7.9598    5.6738 C.ar      1 <0>        -0.1598
     18 C13        -2.0012   -9.1750    6.1394 C.ar      1 <0>        -0.0688
     19 C14        -2.9242   -9.8929    5.4062 C.ar      1 <0>        -0.1064
     20 C15        -3.3912   -9.3919    4.1893 C.ar      1 <0>         0.0282
     21 C16        -2.9257   -8.1621    3.7220 C.ar      1 <0>        -0.1335
     22 C17        -4.3485  -10.1348    3.4263 C.1       1 <0>         0.2390
     23 N5         -5.1079  -10.7242    2.8210 N.1       1 <0>        -0.3924
     24 C18         1.0885   -0.8340    3.9161 C.ar      1 <0>        -0.0557
     25 C19         2.0260   -0.3166    3.0225 C.ar      1 <0>        -0.0314
     26 C20         2.5624    0.9367    3.2341 C.ar      1 <0>        -0.1007
     27 C21         2.1720    1.6861    4.3339 C.ar      1 <0>         0.0774
     28 C22         1.2351    1.1743    5.2302 C.ar      1 <0>         0.0377
     29 C23         0.6909   -0.0796    5.0196 C.ar      1 <0>        -0.0743
     30 O1          1.0245    2.0965    6.2147 O.3       1 <0>        -0.3016
     31 C24         2.1404    3.0030    6.1373 C.3       1 <0>         0.2115
     32 O2          2.5469    2.9286    4.7582 O.3       1 <0>        -0.2982
     33 H2          1.0042    1.8801    0.0026 H         1 <0>         0.0886
     34 H3         -0.5455    1.8639   -0.8728 H         1 <0>         0.0857
     35 H4         -0.5286    1.8543    0.9071 H         1 <0>         0.0832
     36 H5         -0.0067   -0.1311   -2.1353 H         1 <0>         0.1515
     37 H6          0.0270   -2.6159   -2.1403 H         1 <0>         0.1518
     38 H7          0.0536   -3.8122    0.0348 H         1 <0>         0.1357
     39 H8          0.3648   -6.0727    4.9032 H         1 <0>         0.1303
     40 H9         -0.9536   -5.2393    5.7608 H         1 <0>         0.1250
     41 H10        -1.8437   -5.8667    3.1549 H         1 <0>         0.3993
     42 H11        -0.8135   -7.4029    6.2519 H         1 <0>         0.1304
     43 H12        -1.6410   -9.5645    7.0801 H         1 <0>         0.1415
     44 H13        -3.2850  -10.8423    5.7734 H         1 <0>         0.1382
     45 H14        -3.2868   -7.7671    2.7839 H         1 <0>         0.1336
     46 H15         2.3324   -0.8973    2.1651 H         1 <0>         0.1372
     47 H16         3.2888    1.3353    2.5414 H         1 <0>         0.1489
     48 H17        -0.0382   -0.4757    5.7109 H         1 <0>         0.1382
     49 H18         1.8290    4.0163    6.3906 H         1 <0>         0.1427
     50 H19         2.9470    2.6741    6.7926 H         1 <0>         0.0952
     51 H20         0.5772   -3.0599    5.5549 H         1 <0>         0.4677
@<TRIPOS>BOND
     1    1    2 1
     2    1   33 1
     3    1   34 1
     4    1   35 1
     5    2    7 ar
     6    2    3 ar
     7    3    4 ar
     8    3   36 1
     9    4    5 ar
    10    4   37 1
    11    5    6 ar
    12    5   38 1
    13    6    7 ar
    14    6    8 1
    15    8   12 1
    16    8    9 2
    17    9   10 1
    18    9   24 1
    19   10   11 2
    20   10   51 1
    21   11   12 1
    22   11   14 1
    23   12   13 1
    24   14   15 1
    25   14   39 1
    26   14   40 1
    27   15   16 1
    28   15   41 1
    29   16   21 ar
    30   16   17 ar
    31   17   18 ar
    32   17   42 1
    33   18   19 ar
    34   18   43 1
    35   19   20 ar
    36   19   44 1
    37   20   21 ar
    38   20   22 1
    39   21   45 1
    40   22   23 3
    41   24   29 ar
    42   24   25 ar
    43   25   26 ar
    44   25   46 1
    45   26   27 ar
    46   26   47 1
    47   27   32 1
    48   27   28 ar
    49   28   29 ar
    50   28   30 1
    51   29   48 1
    52   30   31 1
    53   31   32 1
    54   31   49 1
    55   31   50 1
@<TRIPOS>MOLECULE
CHEMBL387747__2
   50    54     0     0     0
SMALL
USER_CHARGES

@<TRIPOS>ATOM
      1 C1         -0.0184    1.5028    0.0103 C.3       1 <0>        -0.1041
      2 C2          0.0021   -0.0041    0.0020 C.ar      1 <0>         0.1330
      3 C3          0.0056   -0.6792   -1.2044 C.ar      1 <0>        -0.1710
      4 C4          0.0249   -2.0673   -1.2086 C.ar      1 <0>        -0.0721
      5 C5          0.0401   -2.7316    0.0047 C.ar      1 <0>        -0.1471
      6 C6          0.0355   -1.9875    1.1847 C.ar      1 <0>         0.2068
      7 N1          0.0218   -0.6599    1.1447 N.ar      1 <0>        -0.4679
      8 C7          0.0515   -2.6825    2.4911 C.2       1 <0>         0.0622
      9 C8          0.5166   -2.1659    3.6874 C.2       1 <0>         0.0797
     10 N2          0.3381   -3.1526    4.6270 N.pl3     1 <0>        -0.5511
     11 C9         -0.2172   -4.2175    3.9942 C.2       1 <0>         0.1983
     12 N3         -0.3894   -3.9320    2.7345 N.2       1 <0>        -0.4431
     13 H1          0.5667   -3.0983    5.5681 H         1 <0>         0.4262
     14 C10        -0.5831   -5.5250    4.6482 C.3       1 <0>         0.2147
     15 N4         -1.9968   -5.5005    5.0316 N.pl3     1 <0>        -0.7428
     16 C11        -2.5696   -6.6093    5.6593 C.ar      1 <0>         0.2173
     17 C12        -1.7966   -7.7339    5.9254 C.ar      1 <0>        -0.1688
     18 C13        -2.3584   -8.8335    6.5462 C.ar      1 <0>        -0.0698
     19 C14        -3.6907   -8.8229    6.9063 C.ar      1 <0>        -0.1267
     20 C15        -4.4760   -7.6986    6.6437 C.ar      1 <0>         0.0206
     21 C16        -3.9074   -6.5861    6.0221 C.ar      1 <0>        -0.1456
     22 C17        -5.8587   -7.6851    7.0159 C.1       1 <0>         0.2519
     23 N5         -6.9556   -7.6744    7.3112 N.1       1 <0>        -0.4131
     24 C18         1.0900   -0.8234    3.9098 C.ar      1 <0>        -0.0054
     25 C19         2.0271   -0.3050    3.0134 C.ar      1 <0>        -0.0465
     26 C20         2.5608    0.9492    3.2228 C.ar      1 <0>        -0.0982
     27 C21         2.1706    1.6996    4.3225 C.ar      1 <0>         0.0452
     28 C22         1.2355    1.1878    5.2214 C.ar      1 <0>         0.0317
     29 C23         0.6923   -0.0665    5.0139 C.ar      1 <0>        -0.0870
     30 O1          1.0253    2.1115    6.2047 O.3       1 <0>        -0.3080
     31 C24         2.1400    3.0191    6.1240 C.3       1 <0>         0.2130
     32 O2          2.5443    2.9431    4.7443 O.3       1 <0>        -0.3065
     33 H2          1.0042    1.8801    0.0026 H         1 <0>         0.0784
     34 H3         -0.5455    1.8639   -0.8728 H         1 <0>         0.0751
     35 H4         -0.5286    1.8543    0.9071 H         1 <0>         0.0761
     36 H5         -0.0069   -0.1316   -2.1352 H         1 <0>         0.1349
     37 H6          0.0276   -2.6164   -2.1385 H         1 <0>         0.1371
     38 H7          0.0549   -3.8110    0.0380 H         1 <0>         0.1398
     39 H8         -0.4106   -6.3423    3.9480 H         1 <0>         0.0987
     40 H9          0.0317   -5.6716    5.5363 H         1 <0>         0.0816
     41 H10        -2.5351   -4.7144    4.8495 H         1 <0>         0.4056
     42 H11        -0.7536   -7.7484    5.6457 H         1 <0>         0.1293
     43 H12        -1.7528   -9.7042    6.7499 H         1 <0>         0.1342
     44 H13        -4.1260   -9.6844    7.3910 H         1 <0>         0.1301
     45 H14        -4.5084   -5.7117    5.8207 H         1 <0>         0.1300
     46 H15         2.3339   -0.8863    2.1566 H         1 <0>         0.1333
     47 H16         3.2853    1.3485    2.5285 H         1 <0>         0.1389
     48 H17        -0.0354   -0.4621    5.7070 H         1 <0>         0.1311
     49 H18         1.8277    4.0325    6.3763 H         1 <0>         0.1338
     50 H19         2.9481    2.6923    6.7784 H         1 <0>         0.0859
@<TRIPOS>BOND
     1    1    2 1
     2    1   33 1
     3    1   34 1
     4    1   35 1
     5    2    7 ar
     6    2    3 ar
     7    3    4 ar
     8    3   36 1
     9    4    5 ar
    10    4   37 1
    11    5    6 ar
    12    5   38 1
    13    6    7 ar
    14    6    8 1
    15    8   12 1
    16    8    9 2
    17    9   24 1
    18    9   10 1
    19   10   11 1
    20   10   13 1
    21   11   14 1
    22   11   12 2
    23   14   15 1
    24   14   39 1
    25   14   40 1
    26   15   16 1
    27   15   41 1
    28   16   21 ar
    29   16   17 ar
    30   17   18 ar
    31   17   42 1
    32   18   19 ar
    33   18   43 1
    34   19   20 ar
    35   19   44 1
    36   20   21 ar
    37   20   22 1
    38   21   45 1
    39   22   23 3
    40   24   29 ar
    41   24   25 ar
    42   25   26 ar
    43   25   46 1
    44   26   27 ar
    45   26   47 1
    46   27   32 1
    47   27   28 ar
    48   28   29 ar
    49   28   30 1
    50   29   48 1
    51   30   31 1
    52   31   32 1
    53   31   49 1
    54   31   50 1
@<TRIPOS>MOLECULE
CHEMBL129678
   37    40     0     0     0
SMALL
USER_CHARGES

@<TRIPOS>ATOM
      1 C1          0.2668    1.2841    0.3460 C.ar      1 <0>        -0.1161
      2 C2          1.4880    1.9514    0.2893 C.ar      1 <0>        -0.0969
      3 C3          2.6521    1.2700    0.1065 C.ar      1 <0>        -0.0960
      4 C4          2.6278   -0.1294   -0.0276 C.ar      1 <0>         0.1319
      5 C5          1.3845   -0.8036    0.0307 C.ar      1 <0>        -0.0872
      6 C6          0.2053   -0.0714    0.2199 C.ar      1 <0>        -0.0874
      7 C7          1.3633   -2.2152   -0.1049 C.ar      1 <0>         0.0576
      8 C8          2.5769   -2.8671   -0.2897 C.ar      1 <0>        -0.1721
      9 C9          3.7522   -2.1295   -0.3350 C.ar      1 <0>         0.1332
     10 N1          3.7567   -0.8233   -0.2076 N.ar      1 <0>        -0.4755
     11 C10         0.0915   -2.9690   -0.0511 C.2       1 <0>        -0.2001
     12 C11        -0.2827   -3.8551    0.9181 C.2       1 <0>         0.0913
     13 N2         -1.5058   -4.3214    0.6004 N.pl3     1 <0>        -0.4613
     14 H1         -2.0171   -4.9666    1.1134 H         1 <0>         0.4479
     15 N3         -1.9148   -3.7182   -0.5947 N.2       1 <0>        -0.2709
     16 C12        -0.9671   -2.8996   -0.9941 C.2       1 <0>         0.1349
     17 C13        -0.9969   -2.0569   -2.2139 C.ar      1 <0>        -0.0163
     18 C14         0.1420   -1.9357   -3.0086 C.ar      1 <0>        -0.0573
     19 C15         0.1083   -1.1505   -4.1428 C.ar      1 <0>        -0.1160
     20 C16        -1.0527   -0.4840   -4.4917 C.ar      1 <0>        -0.0612
     21 C17        -2.1856   -0.6002   -3.7068 C.ar      1 <0>        -0.1819
     22 C18        -2.1653   -1.3878   -2.5734 C.ar      1 <0>        -0.0412
     23 C19        -3.4463    0.1294   -4.0932 C.3       1 <0>         0.5095
     24 F1         -3.2252    0.8507   -5.2713 F         1 <0>        -0.1755
     25 F2         -4.4758   -0.7953   -4.2989 F         1 <0>        -0.1748
     26 F3         -3.8084    1.0099   -3.0682 F         1 <0>        -0.1752
     27 H2         -0.6423    1.8475    0.4964 H         1 <0>         0.1267
     28 H3          1.5117    3.0263    0.3915 H         1 <0>         0.1304
     29 H4          3.5909    1.8023    0.0644 H         1 <0>         0.1360
     30 H5         -0.7472   -0.5783    0.2658 H         1 <0>         0.1242
     31 H6          2.6054   -3.9414   -0.3970 H         1 <0>         0.1383
     32 H7          4.6900   -2.6456   -0.4786 H         1 <0>         0.1605
     33 H8          0.2987   -4.1329    1.7848 H         1 <0>         0.1867
     34 H9          1.0491   -2.4550   -2.7368 H         1 <0>         0.1330
     35 H10         0.9901   -1.0559   -4.7592 H         1 <0>         0.1407
     36 H11        -1.0745    0.1297   -5.3801 H         1 <0>         0.1426
     37 H12        -3.0519   -1.4816   -1.9639 H         1 <0>         0.1376
@<TRIPOS>BOND
     1    1    6 ar
     2    1    2 ar
     3    1   27 1
     4    2    3 ar
     5    2   28 1
     6    3    4 ar
     7    3   29 1
     8    4   10 ar
     9    4    5 ar
    10    5    6 ar
    11    5    7 ar
    12    6   30 1
    13    7    8 ar
    14    7   11 1
    15    8    9 ar
    16    8   31 1
    17    9   10 ar
    18    9   32 1
    19   11   16 1
    20   11   12 2
    21   12   13 1
    22   12   33 1
    23   13   14 1
    24   13   15 1
    25   15   16 2
    26   16   17 1
    27   17   22 ar
    28   17   18 ar
    29   18   19 ar
    30   18   34 1
    31   19   20 ar
    32   19   35 1
    33   20   21 ar
    34   20   36 1
    35   21   22 ar
    36   21   23 1
    37   22   37 1
    38   23   24 1
    39   23   25 1
    40   23   26 1
@<TRIPOS>MOLECULE
CHEMBL129678__1
   37    40     0     0     0
SMALL
USER_CHARGES

@<TRIPOS>ATOM
      1 C1          2.9082   -3.8126   -3.2261 C.ar      1 <0>        -0.1162
      2 C2          4.1253   -3.1377   -3.2795 C.ar      1 <0>        -0.0979
      3 C3          4.4564   -2.2122   -2.3379 C.ar      1 <0>        -0.0952
      4 C4          3.5598   -1.9288   -1.2926 C.ar      1 <0>         0.1317
      5 C5          2.3239   -2.6170   -1.2420 C.ar      1 <0>        -0.0877
      6 C6          2.0150   -3.5634   -2.2273 C.ar      1 <0>        -0.0889
      7 C7          1.4215   -2.3287   -0.1860 C.ar      1 <0>         0.0572
      8 C8          1.8039   -1.3757    0.7519 C.ar      1 <0>        -0.1695
      9 C9          3.0353   -0.7470    0.6281 C.ar      1 <0>         0.1336
     10 N1          3.8599   -1.0238   -0.3548 N.ar      1 <0>        -0.4759
     11 C10         0.1176   -3.0180   -0.0862 C.2       1 <0>        -0.1896
     12 C11        -0.2784   -3.9145    0.9248 C.2       1 <0>         0.0770
     13 N2         -1.4953   -4.3139    0.6713 N.2       1 <0>        -0.2741
     14 H1         -2.8140   -3.8272   -0.9151 H         1 <0>         0.4443
     15 N3         -1.9439   -3.7022   -0.5048 N.pl3     1 <0>        -0.4601
     16 C12        -0.9496   -2.8975   -0.9703 C.2       1 <0>         0.1458
     17 C13        -0.9945   -2.0578   -2.1848 C.ar      1 <0>        -0.0403
     18 C14        -0.5631   -0.7305   -2.1361 C.ar      1 <0>        -0.0505
     19 C15        -0.6072    0.0478   -3.2739 C.ar      1 <0>        -0.1126
     20 C16        -1.0782   -0.4836   -4.4617 C.ar      1 <0>        -0.0570
     21 C17        -1.5076   -1.7976   -4.5169 C.ar      1 <0>        -0.1777
     22 C18        -1.4630   -2.5891   -3.3877 C.ar      1 <0>        -0.0529
     23 C19        -2.0193   -2.3674   -5.8147 C.3       1 <0>         0.5091
     24 F1         -1.9630   -1.3854   -6.8096 F         1 <0>        -0.1738
     25 F2         -1.2267   -3.4574   -6.1901 F         1 <0>        -0.1738
     26 F3         -3.3431   -2.7884   -5.6494 F         1 <0>        -0.1750
     27 H2          2.6673   -4.5392   -3.9880 H         1 <0>         0.1263
     28 H3          4.8174   -3.3523   -4.0804 H         1 <0>         0.1304
     29 H4          5.4044   -1.6977   -2.3933 H         1 <0>         0.1361
     30 H5          1.0740   -4.0925   -2.1959 H         1 <0>         0.1229
     31 H6          1.1466   -1.1260    1.5716 H         1 <0>         0.1396
     32 H7          3.3229   -0.0082    1.3615 H         1 <0>         0.1609
     33 H8          0.3233   -4.2205    1.7679 H         1 <0>         0.1923
     34 H9         -0.1960   -0.3144   -1.2096 H         1 <0>         0.1371
     35 H10        -0.2739    1.0744   -3.2377 H         1 <0>         0.1437
     36 H11        -1.1110    0.1303   -5.3496 H         1 <0>         0.1449
     37 H12        -1.7940   -3.6161   -3.4333 H         1 <0>         0.1356
@<TRIPOS>BOND
     1    1    6 ar
     2    1    2 ar
     3    1   27 1
     4    2    3 ar
     5    2   28 1
     6    3    4 ar
     7    3   29 1
     8    4   10 ar
     9    4    5 ar
    10    5    6 ar
    11    5    7 ar
    12    6   30 1
    13    7    8 ar
    14    7   11 1
    15    8    9 ar
    16    8   31 1
    17    9   10 ar
    18    9   32 1
    19   11   12 1
    20   11   16 2
    21   12   13 2
    22   12   33 1
    23   13   15 1
    24   14   15 1
    25   15   16 1
    26   16   17 1
    27   17   22 ar
    28   17   18 ar
    29   18   19 ar
    30   18   34 1
    31   19   20 ar
    32   19   35 1
    33   20   21 ar
    34   20   36 1
    35   21   22 ar
    36   21   23 1
    37   22   37 1
    38   23   24 1
    39   23   25 1
    40   23   26 1
@<TRIPOS>MOLECULE
CHEMBL409331
   65    70     0     0     0
SMALL
USER_CHARGES

@<TRIPOS>ATOM
      1 C1         -0.0178    1.4648    0.0101 C.3       1 <0>        -0.0458
      2 N1          0.0021   -0.0041    0.0020 N.4       1 <0>        -0.3881
      3 C2         -1.3761   -0.5122    0.0107 C.3       1 <0>        -0.0026
      4 C3         -1.3560   -2.0421   -0.0167 C.3       1 <0>         0.0263
      5 N2         -0.6244   -2.5407    1.1564 N.3       1 <0>        -0.5323
      6 C4          0.7499   -2.0201    1.1745 C.3       1 <0>         0.0192
      7 C5          0.7125   -0.4904    1.1921 C.3       1 <0>        -0.0017
      8 C6         -0.6316   -4.0091    1.1963 C.3       1 <0>         0.0568
      9 C7         -0.0856   -4.4853    2.5439 C.3       1 <0>         0.0593
     10 O1         -0.9701   -4.0744    3.5883 O.3       1 <0>        -0.2988
     11 C8         -0.6287   -4.4197    4.8570 C.ar      1 <0>         0.1375
     12 C9          0.5478   -5.1401    5.0843 C.ar      1 <0>        -0.2026
     13 C10         0.9119   -5.4981    6.3460 C.ar      1 <0>        -0.0397
     14 C11         0.1019   -5.1429    7.4332 C.ar      1 <0>        -0.1169
     15 C12         0.4535   -5.5001    8.7597 C.ar      1 <0>         0.0946
     16 C13        -0.4008   -5.1112    9.7848 C.ar      1 <0>        -0.1594
     17 C14        -1.5529   -4.3972    9.4848 C.ar      1 <0>         0.1532
     18 N3         -1.8665   -4.0735    8.2522 N.ar      1 <0>        -0.4882
     19 C15        -1.0918   -4.4134    7.2155 C.ar      1 <0>         0.1691
     20 C16        -1.4420   -4.0515    5.9043 C.ar      1 <0>        -0.1384
     21 C17         1.6895   -6.2624    9.0433 C.2       1 <0>        -0.1783
     22 C18         2.9269   -5.7430    9.3114 C.2       1 <0>         0.0861
     23 N4          3.7777   -6.7630    9.5182 N.pl3     1 <0>        -0.3834
     24 N5          3.0824   -7.9762    9.3767 N.2       1 <0>        -0.2437
     25 C19         1.8253   -7.7177    9.0981 C.2       1 <0>         0.1425
     26 C20         0.7488   -8.7124    8.8771 C.ar      1 <0>         0.1950
     27 C21         1.0736   -9.9996    8.4521 C.ar      1 <0>        -0.1405
     28 C22         0.0577  -10.9172    8.2501 C.ar      1 <0>        -0.0743
     29 C23        -1.2516  -10.5175    8.4798 C.ar      1 <0>        -0.1619
     30 C24        -1.5021   -9.2247    8.9005 C.ar      1 <0>         0.1051
     31 N6         -0.5158   -8.3719    9.0906 N.ar      1 <0>        -0.4568
     32 C25         5.1315   -6.2645    9.8213 C.3       1 <0>         0.1272
     33 C26         5.1461   -4.7937    9.3542 C.3       1 <0>        -0.1313
     34 C27         3.6501   -4.4191    9.4505 C.3       1 <0>        -0.0680
     35 H1          1.0047    1.8421    0.0024 H         1 <0>         0.1239
     36 H2         -0.5450    1.8259   -0.8730 H         1 <0>         0.1245
     37 H3         -0.5280    1.8163    0.9069 H         1 <0>         0.1236
     38 H4         -1.8832   -0.1716    0.9134 H         1 <0>         0.1391
     39 H5         -1.9060   -0.1400   -0.8661 H         1 <0>         0.1364
     40 H6         -2.3783   -2.4196    0.0047 H         1 <0>         0.1254
     41 H7         -0.8610   -2.3831   -0.9260 H         1 <0>         0.0604
     42 H8          1.2641   -2.3816    2.0650 H         1 <0>         0.1222
     43 H9          1.2796   -2.3607    0.2848 H         1 <0>         0.0611
     44 H10         1.7310   -0.1020    1.1912 H         1 <0>         0.1354
     45 H11         0.1947   -0.1499    2.0888 H         1 <0>         0.1390
     46 H12        -1.6519   -4.3710    1.0694 H         1 <0>         0.1030
     47 H13        -0.0057   -4.3975    0.3929 H         1 <0>         0.0695
     48 H14        -0.0076   -5.5725    2.5406 H         1 <0>         0.0757
     49 H15         0.9001   -4.0509    2.7105 H         1 <0>         0.0625
     50 H16         1.1746   -5.4161    4.2492 H         1 <0>         0.1264
     51 H17         1.8228   -6.0549    6.5090 H         1 <0>         0.1262
     52 H18        -0.1698   -5.3636   10.8092 H         1 <0>         0.1353
     53 H19        -2.2101   -4.0998   10.2886 H         1 <0>         0.1610
     54 H20        -2.3463   -3.4909    5.7188 H         1 <0>         0.1406
     55 H21         2.1035  -10.2768    8.2825 H         1 <0>         0.1392
     56 H22         0.2785  -11.9217    7.9207 H         1 <0>         0.1406
     57 H23        -2.0669  -11.2099    8.3309 H         1 <0>         0.1400
     58 H24        -2.5198   -8.9107    9.0797 H         1 <0>         0.1609
     59 H25         5.3229   -6.3214   10.8929 H         1 <0>         0.0955
     60 H26         5.8768   -6.8412    9.2736 H         1 <0>         0.0973
     61 H27         5.7467   -4.1776   10.0234 H         1 <0>         0.1077
     62 H28         5.5029   -4.7139    8.3273 H         1 <0>         0.0889
     63 H29         3.3721   -3.7454    8.6400 H         1 <0>         0.0960
     64 H30         3.4322   -3.9650   10.4172 H         1 <0>         0.1016
     65 H31         0.4748   -0.3293   -0.8280 H         1 <0>         0.4218
@<TRIPOS>BOND
     1    1    2 1
     2    1   35 1
     3    1   36 1
     4    1   37 1
     5    2    7 1
     6    2    3 1
     7    2   65 1
     8    3    4 1
     9    3   38 1
    10    3   39 1
    11    4    5 1
    12    4   40 1
    13    4   41 1
    14    5    6 1
    15    5    8 1
    16    6    7 1
    17    6   42 1
    18    6   43 1
    19    7   44 1
    20    7   45 1
    21    8    9 1
    22    8   46 1
    23    8   47 1
    24    9   10 1
    25    9   48 1
    26    9   49 1
    27   10   11 1
    28   11   20 ar
    29   11   12 ar
    30   12   13 ar
    31   12   50 1
    32   13   14 ar
    33   13   51 1
    34   14   19 ar
    35   14   15 ar
    36   15   16 ar
    37   15   21 1
    38   16   17 ar
    39   16   52 1
    40   17   18 ar
    41   17   53 1
    42   18   19 ar
    43   19   20 ar
    44   20   54 1
    45   21   25 1
    46   21   22 2
    47   22   34 1
    48   22   23 1
    49   23   24 1
    50   23   32 1
    51   24   25 2
    52   25   26 1
    53   26   31 ar
    54   26   27 ar
    55   27   28 ar
    56   27   55 1
    57   28   29 ar
    58   28   56 1
    59   29   30 ar
    60   29   57 1
    61   30   31 ar
    62   30   58 1
    63   32   33 1
    64   32   59 1
    65   32   60 1
    66   33   34 1
    67   33   61 1
    68   33   62 1
    69   34   63 1
    70   34   64 1
@<TRIPOS>MOLECULE
CHEMBL517068
   41    44     0     0     0
SMALL
NO_CHARGES

@<TRIPOS>ATOM
      1 C1         -0.4943   -1.6585   -2.0185 C.3       1 <0>        -0.1099
      2 C2          0.5048   -1.5234   -0.8984 C.ar      1 <0>         0.1102
      3 C3          1.7097   -0.8816   -1.1315 C.ar      1 <0>         0.0643
      4 C4          2.6289   -0.7585   -0.0953 C.ar      1 <0>        -0.1011
      5 C5          2.3047   -1.2854    1.1410 C.ar      1 <0>        -0.1162
      6 C6          1.0713   -1.9201    1.3062 C.ar      1 <0>         0.1663
      7 N1          0.2180   -2.0125    0.2907 N.ar      1 <0>        -0.4368
      8 C7          0.7104   -2.4876    2.6191 C.2       1 <0>         0.1194
      9 C8          0.5325   -1.7906    3.7734 C.2       1 <0>         0.0977
     10 N2          0.2038   -2.6975    4.7669 N.pl3     1 <0>        -0.6128
     11 C9          0.1825   -3.9392    4.2169 C.2       1 <0>         0.4012
     12 N3          0.4851   -3.8290    2.8983 N.pl3     1 <0>        -0.5517
     13 N4         -0.0936   -5.0726    4.8612 N.2       1 <0>        -0.5236
     14 C10        -0.4646   -5.0383    6.1359 C.2       1 <0>         0.1443
     15 O1         -0.6471   -3.9699    6.6876 O.3       1 <0>        -0.4576
     16 C11        -0.6596   -6.3233    6.8988 C.3       1 <0>        -0.0794
     17 C12         0.6664   -0.3286    3.9380 C.2       1 <0>        -0.0541
     18 C13         0.5874    0.5216    2.8099 C.2       1 <0>        -0.0518
     19 C14         0.7116    1.8645    2.9742 C.2       1 <0>        -0.0889
     20 C15         0.9171    2.3887    4.2650 C.2       1 <0>         0.2794
     21 N5          1.0712    3.6276    4.7196 N.2       1 <0>        -0.5385
     22 C16         1.2380    3.6035    6.0340 C.2       1 <0>         0.2420
     23 N6          1.1970    2.3632    6.4612 N.2       1 <0>        -0.3367
     24 N7          0.9899    1.5477    5.3393 N.pl3     1 <0>        -0.2813
     25 C17         0.8612    0.2053    5.1805 C.2       1 <0>         0.1237
     26 F1          1.9897   -0.3802   -2.3544 F         1 <0>        -0.1195
     27 H1         -1.1707   -0.8038   -2.0071 H         1 <0>         0.0880
     28 H2          0.0318   -1.6929   -2.9725 H         1 <0>         0.0830
     29 H3         -1.0667   -2.5766   -1.8860 H         1 <0>         0.0872
     30 H4          3.5752   -0.2625   -0.2530 H         1 <0>         0.1586
     31 H5          2.9955   -1.2076    1.9676 H         1 <0>         0.1527
     32 H6          0.5375   -4.5598    2.2627 H         1 <0>         0.4415
     33 H7          0.2801   -6.6126    7.3694 H         1 <0>         0.0701
     34 H8         -1.4206   -6.1787    7.6656 H         1 <0>         0.0693
     35 H9         -0.9792   -7.1080    6.2131 H         1 <0>         0.0757
     36 H10         0.4299    0.1062    1.8255 H         1 <0>         0.1473
     37 H11         0.6536    2.5248    2.1216 H         1 <0>         0.1640
     38 H12         1.3853    4.4722    6.6586 H         1 <0>         0.2301
     39 H13         0.9172   -0.4448    6.0412 H         1 <0>         0.1697
     40 H14         0.0207   -2.4831    5.6950 H         1 <0>         0.4333
     41 H15        -1.3126   -3.4145    6.2589 H         1 <0>         0.3411
@<TRIPOS>BOND
     1    1    2 1
     2    1   27 1
     3    1   28 1
     4    1   29 1
     5    2    7 ar
     6    2    3 ar
     7    3    4 ar
     8    3   26 1
     9    4    5 ar
    10    4   30 1
    11    5    6 ar
    12    5   31 1
    13    6    7 ar
    14    6    8 1
    15    8    9 2
    16    8   12 1
    17    9   17 1
    18    9   10 1
    19   10   11 1
    20   10   40 1
    21   11   13 2
    22   11   12 1
    23   12   32 1
    24   13   14 1
    25   14   16 1
    26   14   15 2
    27   15   41 1
    28   16   33 1
    29   16   34 1
    30   16   35 1
    31   17   25 2
    32   17   18 1
    33   18   19 2
    34   18   36 1
    35   19   20 1
    36   19   37 1
    37   20   24 1
    38   20   21 2
    39   21   22 1
    40   22   23 2
    41   22   38 1
    42   23   24 1
    43   24   25 1
    44   25   39 1
@<TRIPOS>MOLECULE
CHEMBL517068__1
   40    43     0     0     0
SMALL
NO_CHARGES

@<TRIPOS>ATOM
      1 C1         -0.0184    1.5028    0.0103 C.3       1 <0>        -0.1053
      2 C2          0.0021   -0.0041    0.0020 C.ar      1 <0>         0.1112
      3 C3          0.0055   -0.6807   -1.2062 C.ar      1 <0>         0.0436
      4 C4          0.0244   -2.0708   -1.2087 C.ar      1 <0>        -0.1051
      5 C5          0.0392   -2.7331    0.0053 C.ar      1 <0>        -0.1183
      6 C6          0.0346   -1.9878    1.1846 C.ar      1 <0>         0.2060
      7 N1          0.0218   -0.6602    1.1444 N.ar      1 <0>        -0.4477
      8 C7          0.0503   -2.6820    2.4913 C.2       1 <0>         0.0797
      9 C8          0.5153   -2.1639    3.6850 C.2       1 <0>         0.0487
     10 N2          0.3374   -3.1506    4.6317 N.pl3     1 <0>        -0.5492
     11 H1          0.5662   -3.0932    5.5726 H         1 <0>         0.4260
     12 C9         -0.2198   -4.2203    3.9998 C.2       1 <0>         0.4260
     13 N3         -0.3920   -3.9326    2.7337 N.2       1 <0>        -0.4915
     14 N4         -0.5570   -5.4235    4.6031 N.2       1 <0>        -0.5434
     15 C10        -1.1052   -6.4138    3.8716 C.2       1 <0>         0.4167
     16 O1         -1.3038   -6.2534    2.6860 O.3       1 <0>        -0.4013
     17 C11        -1.4715   -7.7206    4.5268 C.3       1 <0>        -0.1596
     18 C12         1.0890   -0.8208    3.9033 C.2       1 <0>        -0.0376
     19 C13         0.2448    0.3142    3.9441 C.2       1 <0>        -0.0072
     20 C14         0.7859    1.5437    4.1456 C.2       1 <0>        -0.1104
     21 C15         2.1782    1.6728    4.3110 C.2       1 <0>         0.2886
     22 N5          2.9655    2.7234    4.5179 N.2       1 <0>        -0.5478
     23 C16         4.2264    2.3260    4.6076 C.2       1 <0>         0.2411
     24 N6          4.2895    1.0229    4.4630 N.2       1 <0>        -0.3459
     25 N7          2.9779    0.5661    4.2687 N.pl3     1 <0>        -0.2857
     26 C17         2.4465   -0.6686    4.0734 C.2       1 <0>         0.1328
     27 F1         -0.0097    0.0034   -2.3711 F         1 <0>        -0.1279
     28 H2          1.0042    1.8801    0.0026 H         1 <0>         0.0807
     29 H3         -0.5455    1.8639   -0.8728 H         1 <0>         0.0798
     30 H4         -0.5286    1.8543    0.9071 H         1 <0>         0.0848
     31 H5          0.0271   -2.6211   -2.1380 H         1 <0>         0.1496
     32 H6          0.0537   -3.8124    0.0399 H         1 <0>         0.1499
     33 H7         -2.2026   -7.5396    5.3148 H         1 <0>         0.1046
     34 H8         -1.8982   -8.3931    3.7827 H         1 <0>         0.0891
     35 H9         -0.5785   -8.1742    4.9569 H         1 <0>         0.1044
     36 H10        -0.8218    0.2037    3.8157 H         1 <0>         0.1511
     37 H11         0.1519    2.4173    4.1784 H         1 <0>         0.1604
     38 H12         5.0732    2.9753    4.7739 H         1 <0>         0.2268
     39 H13         3.0921   -1.5340    4.0471 H         1 <0>         0.1689
     40 H14        -1.6996   -7.0184    2.2464 H         1 <0>         0.4133
@<TRIPOS>BOND
     1    1    2 1
     2    1   28 1
     3    1   29 1
     4    1   30 1
     5    2    7 ar
     6    2    3 ar
     7    3    4 ar
     8    3   27 1
     9    4    5 ar
    10    4   31 1
    11    5    6 ar
    12    5   32 1
    13    6    7 ar
    14    6    8 1
    15    8   13 1
    16    8    9 2
    17    9   18 1
    18    9   10 1
    19   10   12 1
    20   10   11 1
    21   12   14 1
    22   12   13 2
    23   14   15 1
    24   15   17 1
    25   15   16 2
    26   16   40 1
    27   17   33 1
    28   17   34 1
    29   17   35 1
    30   18   26 2
    31   18   19 1
    32   19   20 2
    33   19   36 1
    34   20   21 1
    35   20   37 1
    36   21   25 1
    37   21   22 2
    38   22   23 1
    39   23   24 2
    40   23   38 1
    41   24   25 1
    42   25   26 1
    43   26   39 1
@<TRIPOS>MOLECULE
CHEMBL517068__2
   40    43     0     0     0
SMALL
NO_CHARGES

@<TRIPOS>ATOM
      1 C1          1.5425    0.8963   -0.5868 C.3       1 <0>        -0.1080
      2 C2          0.9994   -0.5061   -0.4896 C.ar      1 <0>         0.1217
      3 C3          0.5000   -1.1252   -1.6231 C.ar      1 <0>         0.0485
      4 C4         -0.0003   -2.4195   -1.5297 C.ar      1 <0>        -0.0945
      5 C5          0.0186   -3.0475   -0.2985 C.ar      1 <0>        -0.1447
      6 C6          0.5372   -2.3640    0.8045 C.ar      1 <0>         0.1964
      7 N1          1.0112   -1.1284    0.6716 N.ar      1 <0>        -0.4371
      8 C7          0.5641   -3.0194    2.1246 C.2       1 <0>         0.0321
      9 C8          1.4229   -2.7409    3.1713 C.2       1 <0>         0.1148
     10 N2          1.1084   -3.5651    4.1875 N.2       1 <0>        -0.5198
     11 C9          0.1085   -4.3367    3.8356 C.2       1 <0>         0.4295
     12 N3         -0.2684   -4.0314    2.5651 N.pl3     1 <0>        -0.5444
     13 N4         -0.4764   -5.3068    4.6351 N.2       1 <0>        -0.5890
     14 C10        -0.1513   -5.3903    5.9403 C.2       1 <0>         0.4429
     15 O1          0.4766   -4.4965    6.4673 O.3       1 <0>        -0.4448
     16 C11        -0.5680   -6.5944    6.7451 C.3       1 <0>        -0.1182
     17 C12         2.4965   -1.7195    3.1737 C.2       1 <0>        -0.0196
     18 C13         3.5356   -1.7831    2.2179 C.2       1 <0>        -0.0279
     19 C14         4.5150   -0.8408    2.2298 C.2       1 <0>        -0.1057
     20 C15         4.4782    0.1838    3.1947 C.2       1 <0>         0.2857
     21 N5          5.2773    1.2157    3.4439 N.2       1 <0>        -0.5480
     22 C16         4.8094    1.9040    4.4751 C.2       1 <0>         0.2383
     23 N6          3.7078    1.3432    4.9164 N.2       1 <0>        -0.3439
     24 N7          3.4630    0.2237    4.1082 N.pl3     1 <0>        -0.2828
     25 C17         2.4799   -0.7135    4.0952 C.2       1 <0>         0.1417
     26 F1          0.4985   -0.4777   -2.8088 F         1 <0>        -0.1235
     27 H1          2.6063    0.8585   -0.8212 H         1 <0>         0.0876
     28 H2          1.0160    1.4360   -1.3740 H         1 <0>         0.0820
     29 H3          1.3979    1.4086    0.3643 H         1 <0>         0.0833
     30 H4         -0.3953   -2.9226   -2.3999 H         1 <0>         0.1535
     31 H5         -0.3624   -4.0523   -0.1904 H         1 <0>         0.1419
     32 H6         -0.9855   -4.4475    2.0615 H         1 <0>         0.4280
     33 H7          0.2418   -7.3240    6.7532 H         1 <0>         0.1033
     34 H8         -0.7918   -6.2886    7.7671 H         1 <0>         0.0945
     35 H9         -1.4554   -7.0415    6.2970 H         1 <0>         0.1045
     36 H10         3.5515   -2.5749    1.4836 H         1 <0>         0.1420
     37 H11         5.3150   -0.8778    1.5053 H         1 <0>         0.1583
     38 H12         5.2653    2.7910    4.8895 H         1 <0>         0.2260
     39 H13         1.6822   -0.6643    4.8215 H         1 <0>         0.1680
     40 H14         0.1425   -3.6111    6.2686 H         1 <0>         0.4277
@<TRIPOS>BOND
     1    1    2 1
     2    1   27 1
     3    1   28 1
     4    1   29 1
     5    2    7 ar
     6    2    3 ar
     7    3    4 ar
     8    3   26 1
     9    4    5 ar
    10    4   30 1
    11    5    6 ar
    12    5   31 1
    13    6    7 ar
    14    6    8 1
    15    8   12 1
    16    8    9 2
    17    9   17 1
    18    9   10 1
    19   10   11 2
    20   11   13 1
    21   11   12 1
    22   12   32 1
    23   13   14 1
    24   14   16 1
    25   14   15 2
    26   15   40 1
    27   16   33 1
    28   16   34 1
    29   16   35 1
    30   17   25 2
    31   17   18 1
    32   18   19 2
    33   18   36 1
    34   19   20 1
    35   19   37 1
    36   20   24 1
    37   20   21 2
    38   21   22 1
    39   22   23 2
    40   22   38 1
    41   23   24 1
    42   24   25 1
    43   25   39 1
@<TRIPOS>MOLECULE
CHEMBL450161
   41    44     0     0     0
SMALL
NO_CHARGES

@<TRIPOS>ATOM
      1 C1         -3.8536   -1.2727   -0.9839 C.3       1 <0>        -0.1081
      2 C2         -2.4373   -1.3682   -0.4777 C.ar      1 <0>         0.1321
      3 C3         -1.3983   -0.9162   -1.2701 C.ar      1 <0>        -0.1564
      4 C4         -0.0941   -1.0048   -0.8015 C.ar      1 <0>        -0.0677
      5 C5          0.1224   -1.5467    0.4522 C.ar      1 <0>        -0.1475
      6 C6         -0.9733   -1.9841    1.2004 C.ar      1 <0>         0.1787
      7 N1         -2.2071   -1.8762    0.7158 N.ar      1 <0>        -0.4609
      8 C7         -0.7608   -2.5646    2.5394 C.2       1 <0>         0.1149
      9 C8         -0.8158   -1.8956    3.7226 C.2       1 <0>         0.0892
     10 N2         -0.5584   -2.8055    4.7335 N.pl3     1 <0>        -0.6044
     11 C9         -0.3481   -4.0216    4.1659 C.2       1 <0>         0.3699
     12 N3         -0.4742   -3.8941    2.8206 N.pl3     1 <0>        -0.5444
     13 N4         -0.0704   -5.1493    4.8194 N.2       1 <0>        -0.4952
     14 C10         0.2134   -5.1126    6.1163 C.2       1 <0>         0.1701
     15 O1          0.1353   -4.0634    6.7264 O.3       1 <0>        -0.4610
     16 C11         0.6323   -6.3710    6.8319 C.3       1 <0>        -0.1187
     17 C12        -1.0986   -0.4562    3.8972 C.2       1 <0>        -0.0499
     18 C13        -1.4693    0.3333    2.7833 C.2       1 <0>        -0.0520
     19 C14        -1.7274    1.6559    2.9569 C.2       1 <0>        -0.0974
     20 C15        -1.6216    2.2196    4.2430 C.2       1 <0>         0.2705
     21 N5         -1.8082    3.4516    4.7041 N.2       1 <0>        -0.5432
     22 C16        -1.5816    3.4790    6.0095 C.2       1 <0>         0.2332
     23 N6         -1.2460    2.2799    6.4242 N.2       1 <0>        -0.3451
     24 N7         -1.2618    1.4370    5.3036 N.pl3     1 <0>        -0.2717
     25 C17        -1.0081    0.1137    5.1358 C.2       1 <0>         0.0930
     26 H1         -4.3094   -0.3532   -0.6166 H         1 <0>         0.0833
     27 H2         -3.8502   -1.2664   -2.0739 H         1 <0>         0.0788
     28 H3         -4.4254   -2.1293   -0.6272 H         1 <0>         0.0802
     29 H4         -1.5994   -0.4982   -2.2454 H         1 <0>         0.1426
     30 H5          0.7332   -0.6585   -1.4032 H         1 <0>         0.1445
     31 H6          1.1240   -1.6308    0.8471 H         1 <0>         0.1420
     32 H7         -0.3789   -4.6065    2.1693 H         1 <0>         0.4373
     33 H8          1.7164   -6.4728    6.7835 H         1 <0>         0.0747
     34 H9          0.3185   -6.3177    7.8744 H         1 <0>         0.0694
     35 H10         0.1648   -7.2327    6.3553 H         1 <0>         0.0832
     36 H11        -1.5463   -0.1118    1.8024 H         1 <0>         0.1483
     37 H12        -2.0110    2.2701    2.1151 H         1 <0>         0.1587
     38 H13        -1.6605    4.3548    6.6365 H         1 <0>         0.2264
     39 H14        -0.7289   -0.4913    5.9857 H         1 <0>         0.1625
     40 H15        -0.5326   -2.6088    5.6830 H         1 <0>         0.4319
     41 H16         0.2699   -4.1519    7.6799 H         1 <0>         0.4082
@<TRIPOS>BOND
     1    1    2 1
     2    1   26 1
     3    1   27 1
     4    1   28 1
     5    2    7 ar
     6    2    3 ar
     7    3    4 ar
     8    3   29 1
     9    4    5 ar
    10    4   30 1
    11    5    6 ar
    12    5   31 1
    13    6    7 ar
    14    6    8 1
    15    8    9 2
    16    8   12 1
    17    9   17 1
    18    9   10 1
    19   10   11 1
    20   10   40 1
    21   11   13 2
    22   11   12 1
    23   12   32 1
    24   13   14 1
    25   14   16 1
    26   14   15 2
    27   15   41 1
    28   16   33 1
    29   16   34 1
    30   16   35 1
    31   17   25 2
    32   17   18 1
    33   18   19 2
    34   18   36 1
    35   19   20 1
    36   19   37 1
    37   20   24 1
    38   20   21 2
    39   21   22 1
    40   22   23 2
    41   22   38 1
    42   23   24 1
    43   24   25 1
    44   25   39 1
@<TRIPOS>MOLECULE
CHEMBL450161__1
   40    43     0     0     0
SMALL
NO_CHARGES

@<TRIPOS>ATOM
      1 C1         -0.0184    1.5028    0.0103 C.3       1 <0>        -0.1035
      2 C2          0.0021   -0.0041    0.0020 C.ar      1 <0>         0.1325
      3 C3          0.0055   -0.6791   -1.2044 C.ar      1 <0>        -0.1744
      4 C4          0.0244   -2.0674   -1.2087 C.ar      1 <0>        -0.0730
      5 C5          0.0392   -2.7318    0.0045 C.ar      1 <0>        -0.1473
      6 C6          0.0346   -1.9877    1.1847 C.ar      1 <0>         0.2132
      7 N1          0.0218   -0.6599    1.1447 N.ar      1 <0>        -0.4733
      8 C7          0.0503   -2.6826    2.4908 C.2       1 <0>         0.0818
      9 C8          0.5153   -2.1651    3.6850 C.2       1 <0>         0.0440
     10 N2          0.3371   -3.1519    4.6309 N.pl3     1 <0>        -0.5499
     11 H1          0.5657   -3.0949    5.5719 H         1 <0>         0.4252
     12 C9         -0.2205   -4.2214    3.9986 C.2       1 <0>         0.4234
     13 N3         -0.3920   -3.9334    2.7326 N.2       1 <0>        -0.4915
     14 N4         -0.5587   -5.4244    4.6016 N.2       1 <0>        -0.5431
     15 C10        -1.1070   -6.4144    3.8697 C.2       1 <0>         0.4152
     16 O1         -1.3048   -6.2537    2.6840 O.3       1 <0>        -0.4011
     17 C11        -1.4744   -7.7209    4.5247 C.3       1 <0>        -0.1591
     18 C12         1.0891   -0.8221    3.9041 C.2       1 <0>        -0.0335
     19 C13         0.2448    0.3128    3.9456 C.2       1 <0>        -0.0051
     20 C14         0.7860    1.5421    4.1478 C.2       1 <0>        -0.1115
     21 C15         2.1782    1.6711    4.3134 C.2       1 <0>         0.2886
     22 N5          2.9655    2.7215    4.5213 N.2       1 <0>        -0.5487
     23 C16         4.2263    2.3239    4.6110 C.2       1 <0>         0.2404
     24 N6          4.2894    1.0211    4.4654 N.2       1 <0>        -0.3467
     25 N7          2.9779    0.5644    4.2703 N.pl3     1 <0>        -0.2852
     26 C17         2.4465   -0.6701    4.0743 C.2       1 <0>         0.1308
     27 H2          1.0042    1.8801    0.0026 H         1 <0>         0.0756
     28 H3         -0.5455    1.8639   -0.8728 H         1 <0>         0.0756
     29 H4         -0.5286    1.8543    0.9071 H         1 <0>         0.0776
     30 H5         -0.0067   -0.1316   -2.1352 H         1 <0>         0.1339
     31 H6          0.0270   -2.6164   -2.1387 H         1 <0>         0.1356
     32 H7          0.0536   -3.8112    0.0377 H         1 <0>         0.1385
     33 H8         -2.2058   -7.5396    5.3122 H         1 <0>         0.1042
     34 H9         -1.9011   -8.3932    3.7803 H         1 <0>         0.0888
     35 H10        -0.5820   -8.1751    4.9553 H         1 <0>         0.1041
     36 H11        -0.8218    0.2023    3.8170 H         1 <0>         0.1505
     37 H12         0.1519    2.4158    4.1811 H         1 <0>         0.1598
     38 H13         5.0731    2.9731    4.7784 H         1 <0>         0.2265
     39 H14         3.0921   -1.5355    4.0475 H         1 <0>         0.1683
     40 H15        -1.7008   -7.0185    2.2441 H         1 <0>         0.4127
@<TRIPOS>BOND
     1    1    2 1
     2    1   27 1
     3    1   28 1
     4    1   29 1
     5    2    7 ar
     6    2    3 ar
     7    3    4 ar
     8    3   30 1
     9    4    5 ar
    10    4   31 1
    11    5    6 ar
    12    5   32 1
    13    6    7 ar
    14    6    8 1
    15    8   13 1
    16    8    9 2
    17    9   18 1
    18    9   10 1
    19   10   12 1
    20   10   11 1
    21   12   14 1
    22   12   13 2
    23   14   15 1
    24   15   17 1
    25   15   16 2
    26   16   40 1
    27   17   33 1
    28   17   34 1
    29   17   35 1
    30   18   26 2
    31   18   19 1
    32   19   20 2
    33   19   36 1
    34   20   21 1
    35   20   37 1
    36   21   25 1
    37   21   22 2
    38   22   23 1
    39   23   24 2
    40   23   38 1
    41   24   25 1
    42   25   26 1
    43   26   39 1
@<TRIPOS>MOLECULE
CHEMBL450161__2
   40    43     0     0     0
SMALL
NO_CHARGES

@<TRIPOS>ATOM
      1 C1         -0.1854    1.6467    0.2218 C.3       1 <0>        -0.1059
      2 C2         -0.2399    0.1421    0.1552 C.ar      1 <0>         0.1431
      3 C3         -0.4071   -0.4802   -1.0679 C.ar      1 <0>        -0.1736
      4 C4         -0.4571   -1.8670   -1.1274 C.ar      1 <0>        -0.0623
      5 C5         -0.3369   -2.5836    0.0487 C.ar      1 <0>        -0.1757
      6 C6         -0.1700   -1.8911    1.2512 C.ar      1 <0>         0.2093
      7 N1         -0.1221   -0.5617    1.2627 N.ar      1 <0>        -0.4645
      8 C7         -0.0402   -2.6389    2.5144 C.2       1 <0>         0.0234
      9 C8          0.5978   -2.2172    3.6661 C.2       1 <0>         0.1046
     10 N2          0.4836   -3.1992    4.5787 N.2       1 <0>        -0.4979
     11 C9         -0.1852   -4.2030    4.0645 C.2       1 <0>         0.4306
     12 N3         -0.5373   -3.9002    2.7866 N.pl3     1 <0>        -0.5485
     13 N4         -0.4905   -5.3844    4.7223 N.2       1 <0>        -0.5443
     14 C10        -0.0918   -5.5688    5.9964 C.2       1 <0>         0.4176
     15 O1          0.5341   -4.7011    6.5675 O.3       1 <0>        -0.4000
     16 C11        -0.4237   -6.8532    6.7115 C.3       1 <0>        -0.1624
     17 C12         1.2841   -0.9182    3.8603 C.2       1 <0>        -0.0117
     18 C13         2.3764   -0.5651    3.0360 C.2       1 <0>        -0.0265
     19 C14         2.9981    0.6289    3.2234 C.2       1 <0>        -0.1088
     20 C15         2.5434    1.4948    4.2361 C.2       1 <0>         0.2846
     21 N5          2.9436    2.6950    4.6419 N.2       1 <0>        -0.5504
     22 C16         2.1833    3.1028    5.6477 C.2       1 <0>         0.2360
     23 N6          1.2808    2.1887    5.9173 N.2       1 <0>        -0.3456
     24 N7          1.4852    1.1307    5.0199 N.pl3     1 <0>        -0.2814
     25 C17         0.8585   -0.0595    4.8313 C.2       1 <0>         0.1389
     26 H1          0.8469    1.9782    0.1097 H         1 <0>         0.0817
     27 H2         -0.7915    2.0681   -0.5802 H         1 <0>         0.0773
     28 H3         -0.5722    1.9820    1.1841 H         1 <0>         0.0756
     29 H4         -0.4985    0.1071   -1.9697 H         1 <0>         0.1375
     30 H5         -0.5874   -2.3744   -2.0718 H         1 <0>         0.1384
     31 H6         -0.3718   -3.6630    0.0385 H         1 <0>         0.1300
     32 H7         -1.0407   -4.4643    2.1789 H         1 <0>         0.4249
     33 H8          0.3754   -7.5765    6.5489 H         1 <0>         0.1035
     34 H9         -0.5260   -6.6586    7.7791 H         1 <0>         0.0928
     35 H10        -1.3605   -7.2533    6.3237 H         1 <0>         0.1046
     36 H11         2.7149   -1.2393    2.2632 H         1 <0>         0.1413
     37 H12         3.8343    0.9110    2.6007 H         1 <0>         0.1569
     38 H13         2.2901    4.0438    6.1668 H         1 <0>         0.2249
     39 H14         0.0207   -0.3297    5.4570 H         1 <0>         0.1677
     40 H15         0.7757   -4.9242    7.4769 H         1 <0>         0.4141
@<TRIPOS>BOND
     1    1    2 1
     2    1   26 1
     3    1   27 1
     4    1   28 1
     5    2    7 ar
     6    2    3 ar
     7    3    4 ar
     8    3   29 1
     9    4    5 ar
    10    4   30 1
    11    5    6 ar
    12    5   31 1
    13    6    7 ar
    14    6    8 1
    15    8   12 1
    16    8    9 2
    17    9   17 1
    18    9   10 1
    19   10   11 2
    20   11   13 1
    21   11   12 1
    22   12   32 1
    23   13   14 1
    24   14   16 1
    25   14   15 2
    26   15   40 1
    27   16   33 1
    28   16   34 1
    29   16   35 1
    30   17   25 2
    31   17   18 1
    32   18   19 2
    33   18   36 1
    34   19   20 1
    35   19   37 1
    36   20   24 1
    37   20   21 2
    38   21   22 1
    39   22   23 2
    40   22   38 1
    41   23   24 1
    42   24   25 1
    43   25   39 1
@<TRIPOS>MOLECULE
CHEMBL575721
   52    55     0     0     0
SMALL
USER_CHARGES

@<TRIPOS>ATOM
      1 C1         -5.1310   -2.2472   -2.0004 C.3       1 <0>        -0.1168
      2 C2         -3.8069   -2.7207   -1.4587 C.ar      1 <0>        -0.0855
      3 C3         -2.6411   -2.5072   -2.1773 C.ar      1 <0>        -0.1558
      4 C4         -1.4406   -2.9594   -1.6415 C.ar      1 <0>         0.1122
      5 C5         -1.4542   -3.6096   -0.4035 C.ar      1 <0>         0.1432
      6 N1         -2.5951   -3.7913    0.2481 N.ar      1 <0>        -0.4302
      7 C6         -3.7436   -3.3672   -0.2369 C.ar      1 <0>         0.0993
      8 C7         -5.0096   -3.5944    0.5484 C.3       1 <0>        -0.1020
      9 C8         -0.1845   -4.0997    0.1845 C.ar      1 <0>         0.1695
     10 C9         -0.0803   -4.2647    1.5645 C.ar      1 <0>        -0.1326
     11 C10         1.1112   -4.7235    2.0987 C.ar      1 <0>        -0.0806
     12 C11         2.1607   -5.0025    1.2346 C.ar      1 <0>        -0.1661
     13 C12         1.9880   -4.8159   -0.1246 C.ar      1 <0>         0.1000
     14 N2          0.8415   -4.3828   -0.6077 N.ar      1 <0>        -0.4535
     15 O1         -0.2733   -2.7731   -2.3100 O.3       1 <0>        -0.2174
     16 C13        -0.3270   -2.1960   -3.5375 C.ar      1 <0>         0.1668
     17 C14        -0.4770   -0.8160   -3.6720 C.ar      1 <0>        -0.2391
     18 C15        -0.5277   -0.2637   -4.9341 C.ar      1 <0>         0.1616
     19 N3         -0.4364   -1.0224   -6.0106 N.ar      1 <0>        -0.5214
     20 C16        -0.2932   -2.3372   -5.9274 C.ar      1 <0>         0.4068
     21 C17        -0.2281   -2.9654   -4.6907 C.ar      1 <0>        -0.2256
     22 N4         -0.2014   -3.0950   -7.0904 N.pl3     1 <0>        -0.6578
     23 C18        -0.1503   -2.4614   -8.3351 C.ar      1 <0>         0.2031
     24 C19         0.4708   -1.2246   -8.4613 C.ar      1 <0>        -0.1532
     25 C20         0.5216   -0.5988   -9.6915 C.ar      1 <0>        -0.0599
     26 C21        -0.0450   -1.2000  -10.7996 C.ar      1 <0>        -0.2286
     27 C22        -0.6670   -2.4348  -10.6795 C.ar      1 <0>         0.1478
     28 C23        -0.7147   -3.0691   -9.4480 C.ar      1 <0>        -0.1896
     29 O2         -1.2240   -3.0243  -11.7700 O.3       1 <0>        -0.3184
     30 C24        -1.1324   -2.3165  -13.0080 C.3       1 <0>         0.0279
     31 H1         -5.3200   -1.2293   -1.6595 H         1 <0>         0.0805
     32 H2         -5.1058   -2.2668   -3.0899 H         1 <0>         0.0712
     33 H3         -5.9250   -2.9032   -1.6435 H         1 <0>         0.0789
     34 H4         -2.6648   -2.0017   -3.1313 H         1 <0>         0.1434
     35 H5         -5.4451   -4.5530    0.2663 H         1 <0>         0.0791
     36 H6         -4.7803   -3.5990    1.6140 H         1 <0>         0.0790
     37 H7         -5.7192   -2.7955    0.3330 H         1 <0>         0.0788
     38 H8         -0.9174   -4.0375    2.2080 H         1 <0>         0.1420
     39 H9          1.2219   -4.8609    3.1642 H         1 <0>         0.1380
     40 H10         3.1035   -5.3616    1.6200 H         1 <0>         0.1369
     41 H11         2.8030   -5.0318   -0.7997 H         1 <0>         0.1585
     42 H12        -0.5528   -0.1871   -2.7973 H         1 <0>         0.1411
     43 H13        -0.6441    0.8044   -5.0437 H         1 <0>         0.1676
     44 H14        -0.1063   -4.0366   -4.6259 H         1 <0>         0.1442
     45 H15         0.9137   -0.7523   -7.5969 H         1 <0>         0.1375
     46 H16         1.0047    0.3623   -9.7877 H         1 <0>         0.1272
     47 H17        -0.0040   -0.7080  -11.7601 H         1 <0>         0.1273
     48 H18        -1.1945   -4.0321   -9.3536 H         1 <0>         0.1306
     49 H19        -0.0836   -2.1627  -13.2619 H         1 <0>         0.0565
     50 H20        -1.6155   -2.8962  -13.7945 H         1 <0>         0.1004
     51 H21        -1.6284   -1.3506  -12.9118 H         1 <0>         0.0564
     52 H22        -0.1728   -4.0631   -7.0375 H         1 <0>         0.4209
@<TRIPOS>BOND
     1    1    2 1
     2    1   31 1
     3    1   32 1
     4    1   33 1
     5    2    7 ar
     6    2    3 ar
     7    3    4 ar
     8    3   34 1
     9    4    5 ar
    10    4   15 1
    11    5    6 ar
    12    5    9 1
    13    6    7 ar
    14    7    8 1
    15    8   35 1
    16    8   36 1
    17    8   37 1
    18    9   14 ar
    19    9   10 ar
    20   10   11 ar
    21   10   38 1
    22   11   12 ar
    23   11   39 1
    24   12   13 ar
    25   12   40 1
    26   13   14 ar
    27   13   41 1
    28   15   16 1
    29   16   17 ar
    30   16   21 ar
    31   17   42 1
    32   17   18 ar
    33   18   43 1
    34   18   19 ar
    35   19   20 ar
    36   20   22 1
    37   20   21 ar
    38   21   44 1
    39   22   23 1
    40   22   52 1
    41   23   28 ar
    42   23   24 ar
    43   24   25 ar
    44   24   45 1
    45   25   26 ar
    46   25   46 1
    47   26   27 ar
    48   26   47 1
    49   27   28 ar
    50   27   29 1
    51   28   48 1
    52   29   30 1
    53   30   49 1
    54   30   50 1
    55   30   51 1
@<TRIPOS>MOLECULE
CHEMBL575721__1
   53    56     0     0     0
SMALL
USER_CHARGES

@<TRIPOS>ATOM
      1 C1         -5.7234   -1.8682   -2.7031 C.3       1 <0>        -0.1198
      2 C2         -4.5158   -2.4213   -1.9913 C.ar      1 <0>        -0.0859
      3 C3         -3.2539   -2.2884   -2.5490 C.ar      1 <0>        -0.1548
      4 C4         -2.1664   -2.8124   -1.8595 C.ar      1 <0>         0.0870
      5 C5         -2.3854   -3.4509   -0.6348 C.ar      1 <0>         0.1728
      6 N1         -3.6118   -3.5542   -0.1401 N.ar      1 <0>        -0.4264
      7 C6         -4.6564   -3.0612   -0.7725 C.ar      1 <0>         0.1230
      8 C7         -6.0271   -3.2009   -0.1619 C.3       1 <0>        -0.1108
      9 C8         -1.2389   -4.0167    0.1157 C.ar      1 <0>         0.1529
     10 C9         -1.3288   -4.1776    1.4972 C.ar      1 <0>        -0.1247
     11 C10        -0.2504   -4.7076    2.1840 C.ar      1 <0>        -0.0771
     12 C11         0.8839   -5.0598    1.4662 C.ar      1 <0>        -0.1556
     13 C12         0.9048   -4.8729    0.0963 C.ar      1 <0>         0.0988
     14 N2         -0.1375   -4.3709   -0.5340 N.ar      1 <0>        -0.4595
     15 O1         -0.9114   -2.7062   -2.3674 O.3       1 <0>        -0.2106
     16 C13        -0.7659   -2.1435   -3.5940 C.ar      1 <0>         0.2488
     17 C14        -0.8234   -0.7595   -3.7564 C.ar      1 <0>        -0.1934
     18 C15        -0.6715   -0.2222   -5.0169 C.ar      1 <0>         0.1693
     19 N3         -0.4734   -0.9988   -6.0659 N.ar      1 <0>        -0.5023
     20 C16        -0.4125   -2.3181   -5.9557 C.ar      1 <0>         0.4563
     21 C17        -0.5502   -2.9322   -4.7179 C.ar      1 <0>        -0.2033
     22 N4         -0.2022   -3.0950   -7.0904 N.pl3     1 <0>        -0.6347
     23 C18        -0.3274   -4.4851   -7.0185 C.ar      1 <0>         0.1534
     24 C19        -1.3713   -5.0535   -6.2984 C.ar      1 <0>        -0.1786
     25 C20        -1.4950   -6.4272   -6.2279 C.ar      1 <0>        -0.0468
     26 C21        -0.5816   -7.2401   -6.8725 C.ar      1 <0>        -0.1973
     27 C22         0.4631   -6.6782   -7.5927 C.ar      1 <0>         0.1621
     28 C23         0.5873   -5.2999   -7.6711 C.ar      1 <0>        -0.1557
     29 O2          1.3605   -7.4788   -8.2254 O.3       1 <0>        -0.3092
     30 C24         1.1678   -8.8898   -8.1068 C.3       1 <0>         0.0221
     31 H1         -5.8898   -0.8377   -2.3893 H         1 <0>         0.0849
     32 H2         -5.5557   -1.8976   -3.7797 H         1 <0>         0.0708
     33 H3         -6.5982   -2.4693   -2.4551 H         1 <0>         0.0845
     34 H4         -3.1187   -1.7896   -3.4974 H         1 <0>         0.1377
     35 H5         -6.4823   -4.1318   -0.5001 H         1 <0>         0.0862
     36 H6         -5.9414   -3.2122    0.9247 H         1 <0>         0.0853
     37 H7         -6.6489   -2.3599   -0.4687 H         1 <0>         0.0839
     38 H8         -2.2272   -3.8924    2.0244 H         1 <0>         0.1446
     39 H9         -0.2906   -4.8437    3.2547 H         1 <0>         0.1426
     40 H10         1.7423   -5.4756    1.9728 H         1 <0>         0.1410
     41 H11         1.7862   -5.1456   -0.4652 H         1 <0>         0.1606
     42 H12        -0.9855   -0.1160   -2.9044 H         1 <0>         0.1888
     43 H13        -0.7156    0.8489   -5.1480 H         1 <0>         0.2187
     44 H14        -0.4949   -4.0073   -4.6304 H         1 <0>         0.1955
     45 H15        -0.3699   -0.5929   -6.9408 H         1 <0>         0.4469
     46 H16        -2.0859   -4.4206   -5.7932 H         1 <0>         0.1311
     47 H17        -2.3069   -6.8672   -5.6678 H         1 <0>         0.1419
     48 H18        -0.6809   -8.3140   -6.8152 H         1 <0>         0.1428
     49 H19         1.3972   -4.8608   -8.2349 H         1 <0>         0.1441
     50 H20         1.9511   -9.4110   -8.6571 H         1 <0>         0.1105
     51 H21         1.2107   -9.1753   -7.0557 H         1 <0>         0.0630
     52 H22         0.1946   -9.1593   -8.5171 H         1 <0>         0.0630
     53 H23         0.0312   -2.6719   -7.9315 H         1 <0>         0.4314
@<TRIPOS>BOND
     1    1    2 1
     2    1   31 1
     3    1   32 1
     4    1   33 1
     5    2    7 ar
     6    2    3 ar
     7    3    4 ar
     8    3   34 1
     9    4    5 ar
    10    4   15 1
    11    5    6 ar
    12    5    9 1
    13    6    7 ar
    14    7    8 1
    15    8   35 1
    16    8   36 1
    17    8   37 1
    18    9   14 ar
    19    9   10 ar
    20   10   11 ar
    21   10   38 1
    22   11   12 ar
    23   11   39 1
    24   12   13 ar
    25   12   40 1
    26   13   14 ar
    27   13   41 1
    28   15   16 1
    29   16   17 ar
    30   16   21 ar
    31   17   42 1
    32   17   18 ar
    33   18   43 1
    34   18   19 ar
    35   19   45 1
    36   19   20 ar
    37   20   22 1
    38   20   21 ar
    39   21   44 1
    40   22   23 1
    41   22   53 1
    42   23   28 ar
    43   23   24 ar
    44   24   25 ar
    45   24   46 1
    46   25   26 ar
    47   25   47 1
    48   26   27 ar
    49   26   48 1
    50   27   28 ar
    51   27   29 1
    52   28   49 1
    53   29   30 1
    54   30   50 1
    55   30   51 1
    56   30   52 1
@<TRIPOS>MOLECULE
CHEMBL575721__2
   52    55     0     0     0
SMALL
USER_CHARGES

@<TRIPOS>ATOM
      1 C1          3.6050   -4.7862   -2.4830 C.3       1 <0>        -0.1154
      2 C2          2.2669   -4.5389   -1.8354 C.ar      1 <0>        -0.0867
      3 C3          1.3911   -3.6092   -2.3736 C.ar      1 <0>        -0.1526
      4 C4          0.1666   -3.4118   -1.7456 C.ar      1 <0>         0.1110
      5 C5         -0.1342   -4.1551   -0.5999 C.ar      1 <0>         0.1452
      6 N1          0.7363   -5.0339   -0.1208 N.ar      1 <0>        -0.4306
      7 C6          1.8997   -5.2421   -0.7017 C.ar      1 <0>         0.1007
      8 C7          2.8486   -6.2574   -0.1187 C.3       1 <0>        -0.1020
      9 C8         -1.4347   -3.9593    0.0843 C.ar      1 <0>         0.1685
     10 C9         -1.9680   -4.9854    0.8621 C.ar      1 <0>        -0.1325
     11 C10        -3.1830   -4.7877    1.4947 C.ar      1 <0>        -0.0809
     12 C11        -3.8258   -3.5690    1.3287 C.ar      1 <0>        -0.1658
     13 C12        -3.2392   -2.5945    0.5424 C.ar      1 <0>         0.1003
     14 N2         -2.0789   -2.8064   -0.0445 N.ar      1 <0>        -0.4521
     15 O1         -0.7232   -2.5111   -2.2368 O.3       1 <0>        -0.2152
     16 C13        -0.4212   -1.8889   -3.4021 C.2       1 <0>         0.1810
     17 C14        -0.3805   -2.6179   -4.6091 C.2       1 <0>        -0.2611
     18 C15        -0.0797   -1.9964   -5.7671 C.2       1 <0>         0.1649
     19 N3          0.1892   -0.6615   -5.7954 N.pl3     1 <0>        -0.5846
     20 C16         0.1599    0.0830   -4.6420 C.2       1 <0>         0.4381
     21 C17        -0.1559   -0.5353   -3.4206 C.2       1 <0>        -0.2219
     22 N4          0.4250    1.3847   -4.6816 N.2       1 <0>        -0.5972
     23 C18         0.5255    2.0961   -3.5216 C.ar      1 <0>         0.1850
     24 C19        -0.3339    3.1736   -3.2815 C.ar      1 <0>        -0.1694
     25 C20        -0.2285    3.8896   -2.1078 C.ar      1 <0>        -0.0597
     26 C21         0.7246    3.5463   -1.1657 C.ar      1 <0>        -0.2336
     27 C22         1.5826    2.4784   -1.3943 C.ar      1 <0>         0.1470
     28 C23         1.4835    1.7479   -2.5658 C.ar      1 <0>        -0.1976
     29 O2          2.5166    2.1468   -0.4644 O.3       1 <0>        -0.3193
     30 C24         2.5590    2.9395    0.7238 C.3       1 <0>         0.0279
     31 H1          3.5314   -5.6421   -3.1538 H         1 <0>         0.0802
     32 H2          3.9026   -3.9044   -3.0504 H         1 <0>         0.0705
     33 H3          4.3489   -4.9909   -1.7131 H         1 <0>         0.0786
     34 H4          1.6539   -3.0509   -3.2599 H         1 <0>         0.1446
     35 H5          3.4970   -5.7719    0.6107 H         1 <0>         0.0794
     36 H6          2.2794   -7.0479    0.3704 H         1 <0>         0.0788
     37 H7          3.4558   -6.6867   -0.9157 H         1 <0>         0.0784
     38 H8         -1.4407   -5.9219    0.9694 H         1 <0>         0.1419
     39 H9         -3.6213   -5.5646    2.1036 H         1 <0>         0.1378
     40 H10        -4.7753   -3.3837    1.8087 H         1 <0>         0.1367
     41 H11        -3.7368   -1.6450    0.4112 H         1 <0>         0.1584
     42 H12        -0.5907   -3.6772   -4.6055 H         1 <0>         0.1509
     43 H13        -0.0513   -2.5650   -6.6849 H         1 <0>         0.1789
     44 H14        -0.1865    0.0407   -2.5075 H         1 <0>         0.1576
     45 H15        -1.0789    3.4445   -4.0150 H         1 <0>         0.1238
     46 H16        -0.8921    4.7215   -1.9235 H         1 <0>         0.1258
     47 H17         0.8021    4.1114   -0.2487 H         1 <0>         0.1256
     48 H18         2.1471    0.9143   -2.7423 H         1 <0>         0.1229
     49 H19         2.7630    3.9775    0.4609 H         1 <0>         0.0558
     50 H20         1.5994    2.8765    1.2370 H         1 <0>         0.0557
     51 H21         3.3469    2.5692    1.3797 H         1 <0>         0.0989
     52 H22         0.4039   -0.2326   -6.6385 H         1 <0>         0.4275
@<TRIPOS>BOND
     1    1    2 1
     2    1   31 1
     3    1   32 1
     4    1   33 1
     5    2    7 ar
     6    2    3 ar
     7    3    4 ar
     8    3   34 1
     9    4    5 ar
    10    4   15 1
    11    5    6 ar
    12    5    9 1
    13    6    7 ar
    14    7    8 1
    15    8   35 1
    16    8   36 1
    17    8   37 1
    18    9   14 ar
    19    9   10 ar
    20   10   11 ar
    21   10   38 1
    22   11   12 ar
    23   11   39 1
    24   12   13 ar
    25   12   40 1
    26   13   14 ar
    27   13   41 1
    28   15   16 1
    29   16   17 1
    30   16   21 2
    31   17   42 1
    32   17   18 2
    33   18   43 1
    34   18   19 1
    35   19   52 1
    36   19   20 1
    37   20   22 2
    38   20   21 1
    39   21   44 1
    40   22   23 1
    41   23   28 ar
    42   23   24 ar
    43   24   25 ar
    44   24   45 1
    45   25   26 ar
    46   25   46 1
    47   26   27 ar
    48   26   47 1
    49   27   28 ar
    50   27   29 1
    51   28   48 1
    52   29   30 1
    53   30   49 1
    54   30   50 1
    55   30   51 1
@<TRIPOS>MOLECULE
CHEMBL575721__3
   52    55     0     0     0
SMALL
USER_CHARGES

@<TRIPOS>ATOM
      1 C1          5.1964   -3.6686   -2.9275 C.3       1 <0>        -0.1166
      2 C2          3.8801   -3.8932   -2.2289 C.ar      1 <0>        -0.0873
      3 C3          2.7422   -3.2232   -2.6497 C.ar      1 <0>        -0.1523
      4 C4          1.5480   -3.4594   -1.9783 C.ar      1 <0>         0.1099
      5 C5          1.5397   -4.3601   -0.9085 C.ar      1 <0>         0.1463
      6 N1          2.6545   -4.9780   -0.5411 N.ar      1 <0>        -0.4309
      7 C6          3.7959   -4.7746   -1.1655 C.ar      1 <0>         0.1013
      8 C7          5.0313   -5.5081   -0.7105 C.3       1 <0>        -0.1026
      9 C8          0.2764   -4.6257   -0.1796 C.ar      1 <0>         0.1680
     10 C9          0.1110   -5.8309    0.5004 C.ar      1 <0>        -0.1326
     11 C10        -1.0740   -6.0645    1.1763 C.ar      1 <0>        -0.0810
     12 C11        -2.0559   -5.0841    1.1501 C.ar      1 <0>        -0.1658
     13 C12        -1.8248   -3.9112    0.4552 C.ar      1 <0>         0.1008
     14 N2         -0.6855   -3.7117   -0.1754 N.ar      1 <0>        -0.4522
     15 O1          0.4077   -2.8254   -2.3550 O.3       1 <0>        -0.2124
     16 C13         0.4479   -2.0507   -3.4661 C.2       1 <0>         0.1734
     17 C14         0.6491   -2.6344   -4.7345 C.2       1 <0>        -0.2545
     18 C15         0.6887   -1.8614   -5.8384 C.2       1 <0>         0.1547
     19 N3          0.5362   -0.5107   -5.7525 N.pl3     1 <0>        -0.6246
     20 C16         0.3383    0.0955   -4.5364 C.2       1 <0>         0.4388
     21 C17         0.2866   -0.6842   -3.3687 C.2       1 <0>        -0.1635
     22 N4          0.1916    1.4144   -4.4647 N.2       1 <0>        -0.5757
     23 C18         0.1140    2.1553   -5.6078 C.ar      1 <0>         0.1640
     24 C19        -0.8502    1.8545   -6.5758 C.ar      1 <0>        -0.2231
     25 C20        -0.9249    2.6061   -7.7295 C.ar      1 <0>        -0.0546
     26 C21        -0.0493    3.6575   -7.9337 C.ar      1 <0>        -0.2351
     27 C22         0.9116    3.9644   -6.9790 C.ar      1 <0>         0.1508
     28 C23         0.9934    3.2215   -5.8141 C.ar      1 <0>        -0.1666
     29 O2          1.7685    4.9986   -7.1863 O.3       1 <0>        -0.3167
     30 C24         1.6237    5.7263   -8.4076 C.3       1 <0>         0.0271
     31 H1          5.2987   -4.3797   -3.7472 H         1 <0>         0.0797
     32 H2          5.2299   -2.6528   -3.3214 H         1 <0>         0.0715
     33 H3          6.0126   -3.8107   -2.2191 H         1 <0>         0.0788
     34 H4          2.7823   -2.5333   -3.4797 H         1 <0>         0.1452
     35 H5          5.5437   -4.9196    0.0505 H         1 <0>         0.0796
     36 H6          4.7471   -6.4739   -0.2927 H         1 <0>         0.0789
     37 H7          5.6964   -5.6614   -1.5603 H         1 <0>         0.0787
     38 H8          0.8963   -6.5723    0.4996 H         1 <0>         0.1418
     39 H9         -1.2311   -6.9891    1.7118 H         1 <0>         0.1376
     40 H10        -2.9918   -5.2360    1.6672 H         1 <0>         0.1368
     41 H11        -2.5870   -3.1463    0.4330 H         1 <0>         0.1594
     42 H12         0.7723   -3.7038   -4.8215 H         1 <0>         0.1500
     43 H13         0.8437   -2.3196   -6.8041 H         1 <0>         0.1715
     44 H14         0.1270   -0.2192   -2.4071 H         1 <0>         0.1636
     45 H15        -1.5352    1.0342   -6.4199 H         1 <0>         0.1190
     46 H16        -1.6693    2.3730   -8.4764 H         1 <0>         0.1249
     47 H17        -0.1129    4.2419   -8.8397 H         1 <0>         0.1275
     48 H18         1.7371    3.4624   -5.0689 H         1 <0>         0.1329
     49 H19         1.7688    5.0521   -9.2517 H         1 <0>         0.0558
     50 H20         0.6247    6.1595   -8.4562 H         1 <0>         0.0567
     51 H21         2.3672    6.5224   -8.4465 H         1 <0>         0.1012
     52 H22         0.5680    0.0284   -6.5583 H         1 <0>         0.4220
@<TRIPOS>BOND
     1    1    2 1
     2    1   31 1
     3    1   32 1
     4    1   33 1
     5    2    7 ar
     6    2    3 ar
     7    3    4 ar
     8    3   34 1
     9    4    5 ar
    10    4   15 1
    11    5    6 ar
    12    5    9 1
    13    6    7 ar
    14    7    8 1
    15    8   35 1
    16    8   36 1
    17    8   37 1
    18    9   14 ar
    19    9   10 ar
    20   10   11 ar
    21   10   38 1
    22   11   12 ar
    23   11   39 1
    24   12   13 ar
    25   12   40 1
    26   13   14 ar
    27   13   41 1
    28   15   16 1
    29   16   17 1
    30   16   21 2
    31   17   42 1
    32   17   18 2
    33   18   43 1
    34   18   19 1
    35   19   52 1
    36   19   20 1
    37   20   22 2
    38   20   21 1
    39   21   44 1
    40   22   23 1
    41   23   28 ar
    42   23   24 ar
    43   24   25 ar
    44   24   45 1
    45   25   26 ar
    46   25   46 1
    47   26   27 ar
    48   26   47 1
    49   27   28 ar
    50   27   29 1
    51   28   48 1
    52   29   30 1
    53   30   49 1
    54   30   50 1
    55   30   51 1
@<TRIPOS>MOLECULE
CHEMBL593951
   37    40     0     0     0
SMALL
USER_CHARGES

@<TRIPOS>ATOM
      1 C1         -0.1932    1.4176    0.4297 C.3       1 <0>         0.0959
      2 N1         -0.0759   -0.0228    0.1897 N.pl3     1 <0>        -0.3922
      3 C2         -1.1225   -0.8710   -0.0933 C.2       1 <0>         0.2267
      4 C3         -0.6078   -2.1454   -0.2539 C.2       1 <0>        -0.2318
      5 C4          0.8402   -2.0448   -0.0524 C.2       1 <0>         0.5415
      6 O1          1.6433   -2.9581   -0.1124 O.2       1 <0>        -0.5316
      7 N2          1.1176   -0.7514    0.2063 N.am      1 <0>        -0.4148
      8 C5          2.4500   -0.2000    0.4653 C.3       1 <0>         0.0986
      9 C6         -1.3735   -3.3751   -0.5686 C.2       1 <0>        -0.0245
     10 C7         -1.4525   -4.4189    0.3488 C.2       1 <0>        -0.1384
     11 C8         -2.1606   -5.5247    0.0252 C.2       1 <0>        -0.1706
     12 S1         -2.7524   -5.1297   -1.6116 S.3       1 <0>         0.0336
     13 C9         -2.0232   -3.5077   -1.7645 C.2       1 <0>        -0.1658
     14 C10        -2.5422   -0.4889   -0.2050 C.ar      1 <0>        -0.0276
     15 C11        -2.9078    0.6215   -0.9899 C.ar      1 <0>        -0.0851
     16 C12        -4.2075    0.9918   -1.1074 C.ar      1 <0>        -0.0756
     17 C13        -5.2119    0.2645   -0.4410 C.ar      1 <0>         0.0878
     18 C14        -4.8575   -0.8564    0.3531 C.ar      1 <0>         0.0784
     19 C15        -3.5085   -1.2288    0.4591 C.ar      1 <0>        -0.0279
     20 N3         -5.8134   -1.5474    0.9854 N.ar      1 <0>        -0.4166
     21 C16        -7.0691   -1.1817    0.8649 C.ar      1 <0>         0.0802
     22 C17        -7.4180   -0.0787    0.0828 C.ar      1 <0>         0.0855
     23 N4         -6.4976    0.6161   -0.5468 N.ar      1 <0>        -0.4259
     24 H1          0.7947    1.8352    0.6239 H         1 <0>         0.0922
     25 H2         -0.6246    1.8983   -0.4484 H         1 <0>         0.0822
     26 H3         -0.8370    1.5911    1.2920 H         1 <0>         0.0831
     27 H4          2.6583   -0.2404    1.5344 H         1 <0>         0.0707
     28 H5          3.1961   -0.7849   -0.0727 H         1 <0>         0.1002
     29 H6          2.4868    0.8354    0.1268 H         1 <0>         0.0799
     30 H7         -0.9553   -4.3470    1.3049 H         1 <0>         0.1323
     31 H8         -2.3254   -6.4188    0.6081 H         1 <0>         0.1859
     32 H9         -2.0792   -2.8120   -2.5886 H         1 <0>         0.1805
     33 H10        -2.1440    1.1855   -1.5045 H         1 <0>         0.1388
     34 H11        -4.4721    1.8460   -1.7129 H         1 <0>         0.1472
     35 H12        -3.2249   -2.0825    1.0567 H         1 <0>         0.1485
     36 H13        -7.8398   -1.7400    1.3755 H         1 <0>         0.1796
     37 H14        -8.4559    0.2067   -0.0051 H         1 <0>         0.1791
@<TRIPOS>BOND
     1    1    2 1
     2    1   24 1
     3    1   25 1
     4    1   26 1
     5    2    7 1
     6    2    3 1
     7    3    4 2
     8    3   14 1
     9    4    5 1
    10    4    9 1
    11    5    6 2
    12    5    7 am
    13    7    8 1
    14    8   27 1
    15    8   28 1
    16    8   29 1
    17    9   13 2
    18    9   10 1
    19   10   11 2
    20   10   30 1
    21   11   12 1
    22   11   31 1
    23   12   13 1
    24   13   32 1
    25   14   19 ar
    26   14   15 ar
    27   15   16 ar
    28   15   33 1
    29   16   17 ar
    30   16   34 1
    31   17   23 ar
    32   17   18 ar
    33   18   19 ar
    34   18   20 ar
    35   19   35 1
    36   20   21 ar
    37   21   22 ar
    38   21   36 1
    39   22   23 ar
    40   22   37 1
@<TRIPOS>MOLECULE
CHEMBL208437
   52    56     0     0     0
SMALL
USER_CHARGES

@<TRIPOS>ATOM
      1 C1         -0.0167    1.3795    0.0096 C.ar      1 <0>        -0.0743
      2 C2          1.1938    2.0587    0.0017 C.ar      1 <0>        -0.1612
      3 C3          2.3745    1.3401   -0.0134 C.ar      1 <0>         0.1024
      4 N1          2.3646    0.0224   -0.0208 N.ar      1 <0>        -0.4580
      5 C4          1.2295   -0.6646   -0.0137 C.ar      1 <0>         0.1885
      6 C5          0.0021   -0.0041    0.0020 C.ar      1 <0>        -0.1377
      7 C6          1.2668   -2.1464   -0.0230 C.2       1 <0>         0.1418
      8 C7          2.3237   -2.9527   -0.5175 C.2       1 <0>        -0.1854
      9 C8          1.9628   -4.2550   -0.3389 C.2       1 <0>         0.0829
     10 N2          0.7442   -4.2707    0.2372 N.pl3     1 <0>        -0.4589
     11 H1          0.2420   -5.0643    0.4800 H         1 <0>         0.4488
     12 N3          0.3284   -2.9481    0.4310 N.2       1 <0>        -0.2668
     13 C9          3.5892   -2.4678   -1.1191 C.ar      1 <0>         0.0673
     14 C10         3.5787   -1.5044   -2.1343 C.ar      1 <0>        -0.1348
     15 C11         4.7758   -1.0773   -2.6702 C.ar      1 <0>         0.1084
     16 N4          5.9242   -1.5623   -2.2405 N.ar      1 <0>        -0.4845
     17 C12         5.9841   -2.4770   -1.2802 C.ar      1 <0>         0.1629
     18 C13         4.8221   -2.9560   -0.6836 C.ar      1 <0>        -0.1548
     19 C14         7.3027   -2.9890   -0.8350 C.ar      1 <0>        -0.0635
     20 C15         7.3747   -3.9537    0.1689 C.ar      1 <0>        -0.0612
     21 C16         8.6022   -4.4278    0.5807 C.ar      1 <0>        -0.1419
     22 C17         9.7659   -3.9450   -0.0031 C.ar      1 <0>         0.1235
     23 C18         9.6974   -2.9841   -1.0032 C.ar      1 <0>        -0.2091
     24 C19         8.4726   -2.5107   -1.4235 C.ar      1 <0>        -0.0412
     25 O1         10.9739   -4.4133    0.4054 O.3       1 <0>        -0.3067
     26 C20        12.1302   -3.8734   -0.2376 C.3       1 <0>         0.0411
     27 C21        13.3878   -4.5165    0.3504 C.3       1 <0>         0.0950
     28 N5         14.5732   -3.9630   -0.3088 N.pl3     1 <0>        -0.4083
     29 C22        15.1756   -4.4483   -1.4381 C.2       1 <0>         0.0269
     30 C23        16.2243   -3.6439   -1.6967 C.2       1 <0>         0.0065
     31 N6         16.2612   -2.6934   -0.7511 N.pl3     1 <0>        -0.4744
     32 C24        15.2723   -2.8752    0.0808 C.cat     1 <0>         0.2930
     33 H2         -0.9522    1.9188    0.0259 H         1 <0>         0.1409
     34 H3          1.2130    3.1385    0.0070 H         1 <0>         0.1394
     35 H4          3.3180    1.8657   -0.0196 H         1 <0>         0.1594
     36 H5         -0.9212   -0.5643    0.0082 H         1 <0>         0.1406
     37 H6          2.5489   -5.1204   -0.6108 H         1 <0>         0.1865
     38 H7          2.6440   -1.1004   -2.4943 H         1 <0>         0.1264
     39 H8          4.7724   -0.3343   -3.4540 H         1 <0>         0.1562
     40 H9          4.8731   -3.6967    0.1007 H         1 <0>         0.1328
     41 H10         6.4700   -4.3291    0.6238 H         1 <0>         0.1387
     42 H11         8.6586   -5.1751    1.3583 H         1 <0>         0.1379
     43 H12        10.6043   -2.6102   -1.4551 H         1 <0>         0.1251
     44 H13         8.4197   -1.7666   -2.2045 H         1 <0>         0.1418
     45 H14        12.0818   -4.0811   -1.3066 H         1 <0>         0.0788
     46 H15        12.1647   -2.7957   -0.0781 H         1 <0>         0.0766
     47 H16        13.4362   -4.3088    1.4193 H         1 <0>         0.1347
     48 H17        13.3533   -5.5942    0.1908 H         1 <0>         0.1374
     49 H18        14.8690   -5.3107   -2.0114 H         1 <0>         0.2252
     50 H19        16.9145   -3.7462   -2.5210 H         1 <0>         0.2260
     51 H20        15.0511   -2.2594    0.9400 H         1 <0>         0.2623
     52 H21        16.9173   -1.9810   -0.6963 H         1 <0>         0.4670
@<TRIPOS>BOND
     1    1    6 ar
     2    1    2 ar
     3    1   33 1
     4    2    3 ar
     5    2   34 1
     6    3    4 ar
     7    3   35 1
     8    4    5 ar
     9    5    6 ar
    10    5    7 1
    11    6   36 1
    12    7   12 2
    13    7    8 1
    14    8    9 2
    15    8   13 1
    16    9   10 1
    17    9   37 1
    18   10   11 1
    19   10   12 1
    20   13   18 ar
    21   13   14 ar
    22   14   15 ar
    23   14   38 1
    24   15   16 ar
    25   15   39 1
    26   16   17 ar
    27   17   18 ar
    28   17   19 1
    29   18   40 1
    30   19   24 ar
    31   19   20 ar
    32   20   21 ar
    33   20   41 1
    34   21   22 ar
    35   21   42 1
    36   22   23 ar
    37   22   25 1
    38   23   24 ar
    39   23   43 1
    40   24   44 1
    41   25   26 1
    42   26   27 1
    43   26   45 1
    44   26   46 1
    45   27   28 1
    46   27   47 1
    47   27   48 1
    48   28   32 1
    49   28   29 1
    50   29   30 2
    51   29   49 1
    52   30   31 1
    53   30   50 1
    54   31   32 2
    55   31   52 1
    56   32   51 1
@<TRIPOS>MOLECULE
CHEMBL208437__1
   51    55     0     0     0
SMALL
USER_CHARGES

@<TRIPOS>ATOM
      1 C1         -0.0167    1.3791    0.0096 C.ar      1 <0>        -0.0687
      2 C2          1.1939    2.0588    0.0017 C.ar      1 <0>        -0.1605
      3 C3          2.3757    1.3409   -0.0134 C.ar      1 <0>         0.1103
      4 N1          2.3675    0.0237   -0.0209 N.ar      1 <0>        -0.4493
      5 C4          1.2315   -0.6652   -0.0137 C.ar      1 <0>         0.1744
      6 C5          0.0021   -0.0041    0.0020 C.ar      1 <0>        -0.1580
      7 C6          1.2696   -2.1418   -0.0230 C.2       1 <0>         0.1453
      8 C7          2.2978   -2.9387   -0.5099 C.2       1 <0>        -0.1652
      9 C8          1.9149   -4.2780   -0.3177 C.2       1 <0>         0.0695
     10 N2          0.7367   -4.2963    0.2464 N.2       1 <0>        -0.2701
     11 H1         -0.5339   -2.7121    0.8547 H         1 <0>         0.4431
     12 N3          0.3057   -2.9803    0.4497 N.pl3     1 <0>        -0.4607
     13 C9          3.5631   -2.4655   -1.1193 C.ar      1 <0>         0.0625
     14 C10         3.5545   -1.5057   -2.1384 C.ar      1 <0>        -0.1444
     15 C11         4.7521   -1.0894   -2.6817 C.ar      1 <0>         0.1083
     16 N4          5.8991   -1.5814   -2.2561 N.ar      1 <0>        -0.4843
     17 C12         5.9572   -2.4928   -1.2925 C.ar      1 <0>         0.1752
     18 C13         4.7950   -2.9610   -0.6880 C.ar      1 <0>        -0.1540
     19 C14         7.2744   -3.0124   -0.8520 C.ar      1 <0>        -0.0809
     20 C15         7.3447   -3.9739    0.1551 C.ar      1 <0>        -0.0606
     21 C16         8.5708   -4.4554    0.5622 C.ar      1 <0>        -0.1504
     22 C17         9.7350   -3.9834   -0.0295 C.ar      1 <0>         0.1378
     23 C18         9.6682   -3.0259   -1.0329 C.ar      1 <0>        -0.2117
     24 C19         8.4447   -2.5447   -1.4482 C.ar      1 <0>        -0.0376
     25 O1         10.9416   -4.4591    0.3743 O.3       1 <0>        -0.3108
     26 C20        12.0984   -3.9302   -0.2769 C.3       1 <0>         0.0451
     27 C21        13.3544   -4.5804    0.3069 C.3       1 <0>         0.1089
     28 N5         14.5403   -4.0381   -0.3607 N.pl3     1 <0>        -0.4601
     29 C22        15.1333   -4.5323   -1.4911 C.2       1 <0>        -0.0565
     30 C23        16.1864   -3.7366   -1.7584 C.2       1 <0>        -0.0255
     31 N6         16.2351   -2.7825   -0.8169 N.2       1 <0>        -0.4917
     32 C24        15.2492   -2.9538    0.0208 C.2       1 <0>         0.1845
     33 H2         -0.9523    1.9183    0.0259 H         1 <0>         0.1418
     34 H3          1.2124    3.1386    0.0070 H         1 <0>         0.1417
     35 H4          3.3185    1.8676   -0.0196 H         1 <0>         0.1634
     36 H5         -0.9212   -0.5644    0.0082 H         1 <0>         0.1335
     37 H6          2.4970   -5.1458   -0.5906 H         1 <0>         0.1932
     38 H7          2.6211   -1.0963   -2.4954 H         1 <0>         0.1223
     39 H8          4.7503   -0.3492   -3.4681 H         1 <0>         0.1540
     40 H9          4.8447   -3.6988    0.0992 H         1 <0>         0.1346
     41 H10         6.4397   -4.3408    0.6162 H         1 <0>         0.1354
     42 H11         8.6259   -5.2002    1.3424 H         1 <0>         0.1360
     43 H12        10.5753   -2.6604   -1.4910 H         1 <0>         0.1292
     44 H13         8.3931   -1.8029   -2.2315 H         1 <0>         0.1393
     45 H14        12.0428   -4.1415   -1.3448 H         1 <0>         0.0719
     46 H15        12.1417   -2.8522   -0.1217 H         1 <0>         0.0724
     47 H16        13.4100   -4.3690    1.3747 H         1 <0>         0.1079
     48 H17        13.3111   -5.6584    0.1516 H         1 <0>         0.1055
     49 H18        14.8176   -5.3949   -2.0592 H         1 <0>         0.1761
     50 H19        16.8716   -3.8473   -2.5858 H         1 <0>         0.1717
     51 H20        15.0369   -2.3329    0.8785 H         1 <0>         0.2061
@<TRIPOS>BOND
     1    1    6 ar
     2    1    2 ar
     3    1   33 1
     4    2    3 ar
     5    2   34 1
     6    3    4 ar
     7    3   35 1
     8    4    5 ar
     9    5    6 ar
    10    5    7 1
    11    6   36 1
    12    7    8 2
    13    7   12 1
    14    8    9 1
    15    8   13 1
    16    9   10 2
    17    9   37 1
    18   10   12 1
    19   11   12 1
    20   13   18 ar
    21   13   14 ar
    22   14   15 ar
    23   14   38 1
    24   15   16 ar
    25   15   39 1
    26   16   17 ar
    27   17   18 ar
    28   17   19 1
    29   18   40 1
    30   19   24 ar
    31   19   20 ar
    32   20   21 ar
    33   20   41 1
    34   21   22 ar
    35   21   42 1
    36   22   23 ar
    37   22   25 1
    38   23   24 ar
    39   23   43 1
    40   24   44 1
    41   25   26 1
    42   26   27 1
    43   26   45 1
    44   26   46 1
    45   27   28 1
    46   27   47 1
    47   27   48 1
    48   28   32 1
    49   28   29 1
    50   29   30 2
    51   29   49 1
    52   30   31 1
    53   30   50 1
    54   31   32 2
    55   32   51 1
@<TRIPOS>MOLECULE
CHEMBL208437__2
   51    55     0     0     0
SMALL
USER_CHARGES

@<TRIPOS>ATOM
      1 C1         -0.0167    1.3795    0.0096 C.ar      1 <0>        -0.0757
      2 C2          1.1938    2.0587    0.0017 C.ar      1 <0>        -0.1625
      3 C3          2.3745    1.3401   -0.0134 C.ar      1 <0>         0.1040
      4 N1          2.3646    0.0224   -0.0208 N.ar      1 <0>        -0.4553
      5 C4          1.2295   -0.6646   -0.0137 C.ar      1 <0>         0.1903
      6 C5          0.0021   -0.0041    0.0020 C.ar      1 <0>        -0.1395
      7 C6          1.2668   -2.1464   -0.0230 C.2       1 <0>         0.1405
      8 C7          2.3237   -2.9527   -0.5175 C.2       1 <0>        -0.1802
      9 C8          1.9628   -4.2550   -0.3389 C.2       1 <0>         0.0812
     10 N2          0.7442   -4.2707    0.2372 N.pl3     1 <0>        -0.4605
     11 H1          0.2420   -5.0643    0.4800 H         1 <0>         0.4477
     12 N3          0.3284   -2.9481    0.4310 N.2       1 <0>        -0.2695
     13 C9          3.5892   -2.4678   -1.1191 C.ar      1 <0>         0.0634
     14 C10         3.5787   -1.5044   -2.1343 C.ar      1 <0>        -0.1411
     15 C11         4.7758   -1.0773   -2.6702 C.ar      1 <0>         0.1085
     16 N4          5.9242   -1.5623   -2.2405 N.ar      1 <0>        -0.4845
     17 C12         5.9841   -2.4770   -1.2802 C.ar      1 <0>         0.1742
     18 C13         4.8221   -2.9560   -0.6836 C.ar      1 <0>        -0.1576
     19 C14         7.3027   -2.9890   -0.8350 C.ar      1 <0>        -0.0802
     20 C15         7.3747   -3.9537    0.1689 C.ar      1 <0>        -0.0614
     21 C16         8.6022   -4.4278    0.5807 C.ar      1 <0>        -0.1507
     22 C17         9.7659   -3.9450   -0.0031 C.ar      1 <0>         0.1375
     23 C18         9.6974   -2.9841   -1.0032 C.ar      1 <0>        -0.2112
     24 C19         8.4726   -2.5107   -1.4235 C.ar      1 <0>        -0.0376
     25 O1         10.9739   -4.4133    0.4054 O.3       1 <0>        -0.3109
     26 C20        12.1302   -3.8734   -0.2376 C.3       1 <0>         0.0451
     27 C21        13.3878   -4.5165    0.3504 C.3       1 <0>         0.1090
     28 N5         14.5732   -3.9630   -0.3088 N.pl3     1 <0>        -0.4602
     29 C22        15.1759   -4.4485   -1.4379 C.2       1 <0>        -0.0567
     30 C23        16.2244   -3.6441   -1.6965 C.2       1 <0>        -0.0253
     31 N6         16.2611   -2.6932   -0.7512 N.2       1 <0>        -0.4916
     32 C24        15.2720   -2.8750    0.0805 C.2       1 <0>         0.1847
     33 H2         -0.9522    1.9188    0.0259 H         1 <0>         0.1395
     34 H3          1.2130    3.1385    0.0070 H         1 <0>         0.1388
     35 H4          3.3180    1.8657   -0.0196 H         1 <0>         0.1601
     36 H5         -0.9212   -0.5643    0.0082 H         1 <0>         0.1397
     37 H6          2.5489   -5.1204   -0.6108 H         1 <0>         0.1868
     38 H7          2.6440   -1.1004   -2.4943 H         1 <0>         0.1238
     39 H8          4.7724   -0.3343   -3.4540 H         1 <0>         0.1544
     40 H9          4.8731   -3.6967    0.1007 H         1 <0>         0.1325
     41 H10         6.4700   -4.3291    0.6238 H         1 <0>         0.1344
     42 H11         8.6586   -5.1751    1.3583 H         1 <0>         0.1355
     43 H12        10.6043   -2.6102   -1.4551 H         1 <0>         0.1294
     44 H13         8.4197   -1.7666   -2.2045 H         1 <0>         0.1396
     45 H14        12.0818   -4.0811   -1.3066 H         1 <0>         0.0719
     46 H15        12.1647   -2.7957   -0.0781 H         1 <0>         0.0726
     47 H16        13.4362   -4.3088    1.4193 H         1 <0>         0.1079
     48 H17        13.3533   -5.5942    0.1908 H         1 <0>         0.1053
     49 H18        14.8695   -5.3112   -2.0109 H         1 <0>         0.1760
     50 H19        16.9148   -3.7466   -2.5207 H         1 <0>         0.1718
     51 H20        15.0506   -2.2589    0.9395 H         1 <0>         0.2062
@<TRIPOS>BOND
     1    1    6 ar
     2    1    2 ar
     3    1   33 1
     4    2    3 ar
     5    2   34 1
     6    3    4 ar
     7    3   35 1
     8    4    5 ar
     9    5    6 ar
    10    5    7 1
    11    6   36 1
    12    7   12 2
    13    7    8 1
    14    8    9 2
    15    8   13 1
    16    9   10 1
    17    9   37 1
    18   10   11 1
    19   10   12 1
    20   13   18 ar
    21   13   14 ar
    22   14   15 ar
    23   14   38 1
    24   15   16 ar
    25   15   39 1
    26   16   17 ar
    27   17   18 ar
    28   17   19 1
    29   18   40 1
    30   19   24 ar
    31   19   20 ar
    32   20   21 ar
    33   20   41 1
    34   21   22 ar
    35   21   42 1
    36   22   23 ar
    37   22   25 1
    38   23   24 ar
    39   23   43 1
    40   24   44 1
    41   25   26 1
    42   26   27 1
    43   26   45 1
    44   26   46 1
    45   27   28 1
    46   27   47 1
    47   27   48 1
    48   28   32 1
    49   28   29 1
    50   29   30 2
    51   29   49 1
    52   30   31 1
    53   30   50 1
    54   31   32 2
    55   32   51 1
@<TRIPOS>MOLECULE
CHEMBL208437__3
   52    56     0     0     0
SMALL
USER_CHARGES

@<TRIPOS>ATOM
      1 C1         -0.0167    1.3791    0.0096 C.ar      1 <0>        -0.0674
      2 C2          1.1939    2.0588    0.0017 C.ar      1 <0>        -0.1588
      3 C3          2.3757    1.3409   -0.0134 C.ar      1 <0>         0.1088
      4 N1          2.3675    0.0237   -0.0209 N.ar      1 <0>        -0.4517
      5 C4          1.2315   -0.6652   -0.0137 C.ar      1 <0>         0.1718
      6 C5          0.0021   -0.0041    0.0020 C.ar      1 <0>        -0.1559
      7 C6          1.2696   -2.1418   -0.0230 C.2       1 <0>         0.1494
      8 C7          2.2978   -2.9387   -0.5099 C.2       1 <0>        -0.1717
      9 C8          1.9149   -4.2780   -0.3177 C.2       1 <0>         0.0694
     10 N2          0.7367   -4.2963    0.2464 N.2       1 <0>        -0.2680
     11 H1         -0.5339   -2.7121    0.8547 H         1 <0>         0.4445
     12 N3          0.3057   -2.9803    0.4497 N.pl3     1 <0>        -0.4589
     13 C9          3.5631   -2.4655   -1.1193 C.ar      1 <0>         0.0668
     14 C10         3.5545   -1.5057   -2.1384 C.ar      1 <0>        -0.1383
     15 C11         4.7521   -1.0894   -2.6817 C.ar      1 <0>         0.1082
     16 N4          5.8991   -1.5814   -2.2561 N.ar      1 <0>        -0.4844
     17 C12         5.9572   -2.4928   -1.2925 C.ar      1 <0>         0.1640
     18 C13         4.7950   -2.9610   -0.6880 C.ar      1 <0>        -0.1514
     19 C14         7.2744   -3.0124   -0.8520 C.ar      1 <0>        -0.0642
     20 C15         7.3447   -3.9739    0.1551 C.ar      1 <0>        -0.0604
     21 C16         8.5708   -4.4554    0.5622 C.ar      1 <0>        -0.1417
     22 C17         9.7350   -3.9834   -0.0295 C.ar      1 <0>         0.1238
     23 C18         9.6682   -3.0259   -1.0329 C.ar      1 <0>        -0.2096
     24 C19         8.4447   -2.5447   -1.4482 C.ar      1 <0>        -0.0412
     25 O1         10.9416   -4.4591    0.3743 O.3       1 <0>        -0.3066
     26 C20        12.0984   -3.9302   -0.2769 C.3       1 <0>         0.0412
     27 C21        13.3544   -4.5804    0.3069 C.3       1 <0>         0.0949
     28 N5         14.5403   -4.0381   -0.3607 N.pl3     1 <0>        -0.4082
     29 C22        15.1330   -4.5320   -1.4914 C.2       1 <0>         0.0270
     30 C23        16.1862   -3.7364   -1.7585 C.2       1 <0>         0.0063
     31 N6         16.2352   -2.7827   -0.8167 N.pl3     1 <0>        -0.4744
     32 C24        15.2494   -2.9541    0.0210 C.cat     1 <0>         0.2929
     33 H2         -0.9523    1.9183    0.0259 H         1 <0>         0.1432
     34 H3          1.2124    3.1386    0.0070 H         1 <0>         0.1424
     35 H4          3.3185    1.8676   -0.0196 H         1 <0>         0.1628
     36 H5         -0.9212   -0.5644    0.0082 H         1 <0>         0.1345
     37 H6          2.4970   -5.1458   -0.5906 H         1 <0>         0.1928
     38 H7          2.6211   -1.0963   -2.4954 H         1 <0>         0.1248
     39 H8          4.7503   -0.3492   -3.4681 H         1 <0>         0.1557
     40 H9          4.8447   -3.6988    0.0992 H         1 <0>         0.1349
     41 H10         6.4397   -4.3408    0.6162 H         1 <0>         0.1398
     42 H11         8.6259   -5.2002    1.3424 H         1 <0>         0.1383
     43 H12        10.5753   -2.6604   -1.4910 H         1 <0>         0.1249
     44 H13         8.3931   -1.8029   -2.2315 H         1 <0>         0.1415
     45 H14        12.0428   -4.1415   -1.3448 H         1 <0>         0.0788
     46 H15        12.1417   -2.8522   -0.1217 H         1 <0>         0.0764
     47 H16        13.4100   -4.3690    1.3747 H         1 <0>         0.1347
     48 H17        13.3111   -5.6584    0.1516 H         1 <0>         0.1375
     49 H18        14.8171   -5.3943   -2.0597 H         1 <0>         0.2253
     50 H19        16.8713   -3.8470   -2.5861 H         1 <0>         0.2260
     51 H20        15.0374   -2.3334    0.8790 H         1 <0>         0.2623
     52 H21        16.8968   -2.0750   -0.7682 H         1 <0>         0.4669
@<TRIPOS>BOND
     1    1    6 ar
     2    1    2 ar
     3    1   33 1
     4    2    3 ar
     5    2   34 1
     6    3    4 ar
     7    3   35 1
     8    4    5 ar
     9    5    6 ar
    10    5    7 1
    11    6   36 1
    12    7    8 2
    13    7   12 1
    14    8    9 1
    15    8   13 1
    16    9   10 2
    17    9   37 1
    18   10   12 1
    19   11   12 1
    20   13   18 ar
    21   13   14 ar
    22   14   15 ar
    23   14   38 1
    24   15   16 ar
    25   15   39 1
    26   16   17 ar
    27   17   18 ar
    28   17   19 1
    29   18   40 1
    30   19   24 ar
    31   19   20 ar
    32   20   21 ar
    33   20   41 1
    34   21   22 ar
    35   21   42 1
    36   22   23 ar
    37   22   25 1
    38   23   24 ar
    39   23   43 1
    40   24   44 1
    41   25   26 1
    42   26   27 1
    43   26   45 1
    44   26   46 1
    45   27   28 1
    46   27   47 1
    47   27   48 1
    48   28   32 1
    49   28   29 1
    50   29   30 2
    51   29   49 1
    52   30   31 1
    53   30   50 1
    54   31   32 2
    55   31   52 1
    56   32   51 1
@<TRIPOS>MOLECULE
CHEMBL552232
   36    38     0     0     0
SMALL
USER_CHARGES

@<TRIPOS>ATOM
      1 C1          0.6981    1.4516    0.0177 C.3       1 <0>        -0.1040
      2 C2          0.4728   -0.0385    0.0070 C.ar      1 <0>         0.1258
      3 C3          0.4019   -0.7095   -1.2013 C.ar      1 <0>        -0.1533
      4 C4          0.1945   -2.0806   -1.2062 C.ar      1 <0>        -0.0799
      5 C5          0.0647   -2.7338    0.0085 C.ar      1 <0>        -0.1251
      6 C6          0.1466   -1.9953    1.1859 C.ar      1 <0>         0.1699
      7 N1          0.3514   -0.6851    1.1474 N.ar      1 <0>        -0.4401
      8 C7          0.0091   -2.6804    2.4952 C.ar      1 <0>         0.4082
      9 N2         -0.1849   -3.9913    2.5213 N.ar      1 <0>        -0.5377
     10 C8         -0.3117   -4.6378    3.6695 C.ar      1 <0>         0.2092
     11 C9         -0.2400   -3.9305    4.8553 C.ar      1 <0>        -0.2752
     12 C10        -0.0348   -2.5500    4.7963 C.ar      1 <0>         0.4254
     13 N3          0.0888   -1.9669    3.6091 N.ar      1 <0>        -0.5263
     14 N4          0.0438   -1.7997    5.9604 N.pl3     1 <0>        -0.6469
     15 C11         0.1246   -0.4105    5.8898 C.ar      1 <0>         0.1993
     16 C12        -0.4827    0.2893    4.8476 C.ar      1 <0>        -0.1616
     17 C13        -0.3794    1.6642    4.8140 C.ar      1 <0>         0.1200
     18 N5          0.2835    2.3160    5.7509 N.ar      1 <0>        -0.5003
     19 C14         0.8717    1.6900    6.7530 C.ar      1 <0>         0.1173
     20 C15         0.8099    0.3166    6.8626 C.ar      1 <0>        -0.2092
     21 C16        -0.5324   -6.1284    3.6840 C.3       1 <0>        -0.1067
     22 H1          1.7683    1.6570    0.0413 H         1 <0>         0.0792
     23 H2          0.2633    1.8912   -0.8799 H         1 <0>         0.0769
     24 H3          0.2256    1.8841    0.8996 H         1 <0>         0.0795
     25 H4          0.5068   -0.1706   -2.1313 H         1 <0>         0.1396
     26 H5          0.1350   -2.6268   -2.1360 H         1 <0>         0.1423
     27 H6         -0.0980   -3.8010    0.0417 H         1 <0>         0.1497
     28 H7         -0.3407   -4.4338    5.8056 H         1 <0>         0.1485
     29 H8          0.0426   -2.2422    6.8236 H         1 <0>         0.4243
     30 H9         -1.0260   -0.2379    4.0773 H         1 <0>         0.1469
     31 H10        -0.8465    2.2145    4.0106 H         1 <0>         0.1561
     32 H11         1.4046    2.2609    7.4990 H         1 <0>         0.1573
     33 H12         1.2892   -0.1890    7.6878 H         1 <0>         0.1342
     34 H13         0.4307   -6.6380    3.7152 H         1 <0>         0.0883
     35 H14        -1.1162   -6.4008    4.5633 H         1 <0>         0.0826
     36 H15        -1.0712   -6.4247    2.7840 H         1 <0>         0.0858
@<TRIPOS>BOND
     1    1    2 1
     2    1   22 1
     3    1   23 1
     4    1   24 1
     5    2    7 ar
     6    2    3 ar
     7    3    4 ar
     8    3   25 1
     9    4    5 ar
    10    4   26 1
    11    5    6 ar
    12    5   27 1
    13    6    7 ar
    14    6    8 1
    15    8   13 ar
    16    8    9 ar
    17    9   10 ar
    18   10   11 ar
    19   10   21 1
    20   11   12 ar
    21   11   28 1
    22   12   13 ar
    23   12   14 1
    24   14   15 1
    25   14   29 1
    26   15   20 ar
    27   15   16 ar
    28   16   17 ar
    29   16   30 1
    30   17   18 ar
    31   17   31 1
    32   18   19 ar
    33   19   20 ar
    34   19   32 1
    35   20   33 1
    36   21   34 1
    37   21   35 1
    38   21   36 1
@<TRIPOS>MOLECULE
CHEMBL185238
   35    38     0     0     0
SMALL
USER_CHARGES

@<TRIPOS>ATOM
      1 C1         -0.7538    1.6069    0.3240 C.3       1 <0>        -0.1019
      2 C2         -0.5750    0.1138    0.2265 C.ar      1 <0>         0.1331
      3 C3         -0.6852   -0.5074   -1.0040 C.ar      1 <0>        -0.1652
      4 C4         -0.5199   -1.8825   -1.0896 C.ar      1 <0>        -0.0731
      5 C5         -0.2485   -2.5888    0.0694 C.ar      1 <0>        -0.1469
      6 C6         -0.1511   -1.8984    1.2759 C.ar      1 <0>         0.2061
      7 N1         -0.3107   -0.5814    1.3139 N.ar      1 <0>        -0.4488
      8 C7          0.1386   -2.6402    2.5262 C.2       1 <0>         0.1557
      9 C8          0.7597   -2.1117    3.6874 C.2       1 <0>        -0.1738
     10 C9          0.8377   -3.1195    4.6036 C.2       1 <0>         0.0883
     11 N2          0.2960   -4.2224    4.0512 N.pl3     1 <0>        -0.4592
     12 H1          0.2173   -5.0899    4.4781 H         1 <0>         0.4483
     13 N3         -0.1392   -3.9040    2.7594 N.2       1 <0>        -0.2723
     14 C10         1.2362   -0.7214    3.8709 C.ar      1 <0>         0.2576
     15 C11         0.9140   -0.0339    5.0536 C.ar      1 <0>        -0.1455
     16 C12         1.3458    1.2446    5.2349 C.ar      1 <0>        -0.0438
     17 C13         2.1135    1.8448    4.2139 C.ar      1 <0>         0.0713
     18 C14         2.4033    1.0971    3.0463 C.ar      1 <0>         0.0926
     19 N4          1.9591   -0.1556    2.9228 N.ar      1 <0>        -0.4411
     20 C15         3.1701    1.6998    2.0293 C.ar      1 <0>        -0.0449
     21 C16         3.5999    2.9823    2.2179 C.ar      1 <0>        -0.1610
     22 C17         3.2775    3.6589    3.3921 C.ar      1 <0>         0.1269
     23 N5          2.5640    3.0950    4.3370 N.ar      1 <0>        -0.4646
     24 H2          0.1906    2.1015    0.0968 H         1 <0>         0.0763
     25 H3         -1.5133    1.9292   -0.3882 H         1 <0>         0.0763
     26 H4         -1.0679    1.8701    1.3341 H         1 <0>         0.0732
     27 H5         -0.8982    0.0722   -1.8901 H         1 <0>         0.1359
     28 H6         -0.6016   -2.3903   -2.0392 H         1 <0>         0.1385
     29 H7         -0.1145   -3.6601    0.0392 H         1 <0>         0.1383
     30 H8          1.2592   -3.0463    5.5953 H         1 <0>         0.1887
     31 H9          0.3244   -0.5189    5.8175 H         1 <0>         0.1413
     32 H10         1.1063    1.7865    6.1379 H         1 <0>         0.1468
     33 H11         3.4119    1.1616    1.1247 H         1 <0>         0.1418
     34 H12         4.1898    3.4717    1.4570 H         1 <0>         0.1426
     35 H13         3.6243    4.6726    3.5280 H         1 <0>         0.1627
@<TRIPOS>BOND
     1    1    2 1
     2    1   24 1
     3    1   25 1
     4    1   26 1
     5    2    7 ar
     6    2    3 ar
     7    3    4 ar
     8    3   27 1
     9    4    5 ar
    10    4   28 1
    11    5    6 ar
    12    5   29 1
    13    6    7 ar
    14    6    8 1
    15    8   13 2
    16    8    9 1
    17    9   10 2
    18    9   14 1
    19   10   11 1
    20   10   30 1
    21   11   12 1
    22   11   13 1
    23   14   19 ar
    24   14   15 ar
    25   15   16 ar
    26   15   31 1
    27   16   17 ar
    28   16   32 1
    29   17   23 ar
    30   17   18 ar
    31   18   19 ar
    32   18   20 ar
    33   20   21 ar
    34   20   33 1
    35   21   22 ar
    36   21   34 1
    37   22   23 ar
    38   22   35 1
@<TRIPOS>MOLECULE
CHEMBL185238__1
   35    38     0     0     0
SMALL
USER_CHARGES

@<TRIPOS>ATOM
      1 C1         -0.7436    1.6090    0.3258 C.3       1 <0>        -0.1043
      2 C2         -0.5691    0.1153    0.2278 C.ar      1 <0>         0.1400
      3 C3         -0.6834   -0.5054   -1.0032 C.ar      1 <0>        -0.1630
      4 C4         -0.5217   -1.8810   -1.0905 C.ar      1 <0>        -0.0661
      5 C5         -0.2495   -2.5892    0.0667 C.ar      1 <0>        -0.1653
      6 C6         -0.1476   -1.8991    1.2754 C.ar      1 <0>         0.1890
      7 N1         -0.3045   -0.5801    1.3143 N.ar      1 <0>        -0.4426
      8 C7          0.1420   -2.6398    2.5202 C.2       1 <0>         0.1659
      9 C8          0.7541   -2.1330    3.6607 C.2       1 <0>        -0.1635
     10 C9          0.8270   -3.1817    4.5957 C.2       1 <0>         0.0757
     11 N2          0.2974   -4.2501    4.0630 N.2       1 <0>        -0.2713
     12 H1         -0.5794   -4.5616    2.1584 H         1 <0>         0.4436
     13 N3         -0.1453   -3.9468    2.7705 N.pl3     1 <0>        -0.4607
     14 C10         1.2394   -0.7480    3.8550 C.ar      1 <0>         0.2580
     15 C11         0.9215   -0.0676    5.0433 C.ar      1 <0>        -0.1421
     16 C12         1.3620    1.2065    5.2347 C.ar      1 <0>        -0.0439
     17 C13         2.1341    1.8095    4.2187 C.ar      1 <0>         0.0719
     18 C14         2.4192    1.0691    3.0451 C.ar      1 <0>         0.0919
     19 N4          1.9663   -0.1793    2.9113 N.ar      1 <0>        -0.4453
     20 C15         3.1905    1.6746    2.0330 C.ar      1 <0>        -0.0460
     21 C16         3.6289    2.9526    2.2320 C.ar      1 <0>        -0.1609
     22 C17         3.3107    3.6220    3.4115 C.ar      1 <0>         0.1265
     23 N5          2.5930    3.0555    4.3517 N.ar      1 <0>        -0.4640
     24 H2          0.2017    2.1011    0.0967 H         1 <0>         0.0788
     25 H3         -1.5036    1.9334   -0.3849 H         1 <0>         0.0782
     26 H4         -1.0550    1.8729    1.3365 H         1 <0>         0.0753
     27 H5         -0.8969    0.0753   -1.8885 H         1 <0>         0.1389
     28 H6         -0.6068   -2.3876   -2.0405 H         1 <0>         0.1409
     29 H7         -0.1183   -3.6608    0.0350 H         1 <0>         0.1325
     30 H8          1.2501   -3.1145    5.5871 H         1 <0>         0.1948
     31 H9          0.3283   -0.5545    5.8032 H         1 <0>         0.1436
     32 H10         1.1259    1.7428    6.1419 H         1 <0>         0.1474
     33 H11         3.4289    1.1420    1.1243 H         1 <0>         0.1409
     34 H12         4.2223    3.4440    1.4752 H         1 <0>         0.1424
     35 H13         3.6641    4.6324    3.5554 H         1 <0>         0.1627
@<TRIPOS>BOND
     1    1    2 1
     2    1   24 1
     3    1   25 1
     4    1   26 1
     5    2    7 ar
     6    2    3 ar
     7    3    4 ar
     8    3   27 1
     9    4    5 ar
    10    4   28 1
    11    5    6 ar
    12    5   29 1
    13    6    7 ar
    14    6    8 1
    15    8    9 2
    16    8   13 1
    17    9   10 1
    18    9   14 1
    19   10   11 2
    20   10   30 1
    21   11   13 1
    22   12   13 1
    23   14   19 ar
    24   14   15 ar
    25   15   16 ar
    26   15   31 1
    27   16   17 ar
    28   16   32 1
    29   17   23 ar
    30   17   18 ar
    31   18   19 ar
    32   18   20 ar
    33   20   21 ar
    34   20   33 1
    35   21   22 ar
    36   21   34 1
    37   22   23 ar
    38   22   35 1
@<TRIPOS>MOLECULE
CHEMBL585505
   67    71     0     0     0
SMALL
USER_CHARGES

@<TRIPOS>ATOM
      1 C1         -0.0184    1.5028    0.0103 C.3       1 <0>        -0.1032
      2 C2          0.0021   -0.0041    0.0020 C.ar      1 <0>         0.1323
      3 C3          0.0055   -0.6793   -1.2046 C.ar      1 <0>        -0.1709
      4 C4          0.0244   -2.0672   -1.2085 C.ar      1 <0>        -0.0719
      5 C5          0.0392   -2.7313    0.0052 C.ar      1 <0>        -0.1465
      6 C6          0.0346   -1.9872    1.1847 C.ar      1 <0>         0.2070
      7 N1          0.0218   -0.6598    1.1445 N.ar      1 <0>        -0.4705
      8 C7          0.0498   -2.6822    2.4917 C.2       1 <0>         0.0750
      9 C8          0.5146   -2.1669    3.6891 C.2       1 <0>         0.0416
     10 N2          0.3339   -3.1553    4.6273 N.pl3     1 <0>        -0.5517
     11 H1          0.5612   -3.1019    5.5688 H         1 <0>         0.4231
     12 C9         -0.2189   -4.2140    3.9971 C.2       1 <0>         0.2405
     13 N3         -0.3913   -3.9303    2.7365 N.2       1 <0>        -0.4673
     14 C10        -0.5863   -5.5206    4.6521 C.3       1 <0>        -0.0136
     15 C11         0.6417   -6.4321    4.6960 C.3       1 <0>        -0.1460
     16 C12        -1.0768   -5.2566    6.0771 C.3       1 <0>        -0.1550
     17 C13         1.0895   -0.8258    3.9134 C.ar      1 <0>         0.0469
     18 C14         2.0330   -0.2895    3.0260 C.ar      1 <0>        -0.1141
     19 C15         2.5471    0.9674    3.2692 C.ar      1 <0>         0.1103
     20 N4          2.1655    1.6667    4.3195 N.ar      1 <0>        -0.4701
     21 C16         1.2752    1.2018    5.1880 C.ar      1 <0>         0.1630
     22 C17         0.7032   -0.0536    5.0142 C.ar      1 <0>        -0.1500
     23 C18         0.8830    2.0322    6.3525 C.ar      1 <0>        -0.0176
     24 C19        -0.0473    1.5480    7.2720 C.ar      1 <0>        -0.1108
     25 C20        -0.4122    2.3183    8.3536 C.ar      1 <0>        -0.0592
     26 C21         0.1498    3.5848    8.5297 C.ar      1 <0>        -0.1288
     27 C22         1.0813    4.0687    7.6083 C.ar      1 <0>        -0.0891
     28 C23         1.4490    3.2946    6.5305 C.ar      1 <0>        -0.0865
     29 C24        -0.2414    4.4125    9.6898 C.2       1 <0>         0.5603
     30 O1         -1.0525    3.9911   10.4912 O.2       1 <0>        -0.5332
     31 N5          0.3011    5.6346    9.8592 N.am      1 <0>        -0.7221
     32 C25        -0.0867    6.4551   11.0093 C.3       1 <0>         0.1438
     33 C26        -1.3588    7.2394   10.6735 C.3       1 <0>        -0.1674
     34 C27        -1.7118    8.1524   11.8506 C.3       1 <0>         0.0629
     35 O2         -0.6124    9.0241   12.1219 O.3       1 <0>        -0.3809
     36 C28         0.5920    8.3478   12.4880 C.3       1 <0>         0.0641
     37 C29         1.0375    7.4428   11.3364 C.3       1 <0>        -0.1648
     38 H2          1.0042    1.8801    0.0026 H         1 <0>         0.0784
     39 H3         -0.5455    1.8639   -0.8728 H         1 <0>         0.0756
     40 H4         -0.5286    1.8543    0.9071 H         1 <0>         0.0749
     41 H5         -0.0067   -0.1319   -2.1355 H         1 <0>         0.1354
     42 H6          0.0271   -2.6165   -2.1384 H         1 <0>         0.1375
     43 H7          0.0536   -3.8107    0.0388 H         1 <0>         0.1399
     44 H8         -1.3775   -6.0043    4.0793 H         1 <0>         0.1080
     45 H9          0.3759   -7.3771    5.1698 H         1 <0>         0.0708
     46 H10         0.9911   -6.6202    3.6808 H         1 <0>         0.0648
     47 H11         1.4329   -5.9484    5.2688 H         1 <0>         0.0542
     48 H12        -1.9516   -4.6072    6.0458 H         1 <0>         0.0628
     49 H13        -1.3425   -6.2016    6.5508 H         1 <0>         0.0758
     50 H14        -0.2855   -4.7729    6.6499 H         1 <0>         0.0532
     51 H15         2.3537   -0.8535    2.1626 H         1 <0>         0.1309
     52 H16         3.2742    1.3850    2.5885 H         1 <0>         0.1611
     53 H17        -0.0240   -0.4280    5.7196 H         1 <0>         0.1333
     54 H18        -0.4820    0.5688    7.1354 H         1 <0>         0.1315
     55 H19        -1.1328    1.9433    9.0652 H         1 <0>         0.1404
     56 H20         1.5164    5.0479    7.7435 H         1 <0>         0.1291
     57 H21         2.1726    3.6667    5.8203 H         1 <0>         0.1438
     58 H22         0.9483    5.9708    9.2197 H         1 <0>         0.4009
     59 H23        -0.2696    5.8125   11.8705 H         1 <0>         0.0921
     60 H24        -1.1897    7.8435    9.7820 H         1 <0>         0.0751
     61 H25        -2.1786    6.5440   10.4933 H         1 <0>         0.0804
     62 H26        -2.5920    8.7444   11.6003 H         1 <0>         0.0990
     63 H27        -1.9203    7.5453   12.7316 H         1 <0>         0.0547
     64 H28         1.3714    9.0807   12.6967 H         1 <0>         0.1007
     65 H29         0.4136    7.7433   13.3773 H         1 <0>         0.0550
     66 H30         1.9315    6.8928   11.6303 H         1 <0>         0.0820
     67 H31         1.2551    8.0509   10.4584 H         1 <0>         0.0792
@<TRIPOS>BOND
     1    1    2 1
     2    1   38 1
     3    1   39 1
     4    1   40 1
     5    2    7 ar
     6    2    3 ar
     7    3    4 ar
     8    3   41 1
     9    4    5 ar
    10    4   42 1
    11    5    6 ar
    12    5   43 1
    13    6    7 ar
    14    6    8 1
    15    8   13 1
    16    8    9 2
    17    9   10 1
    18    9   17 1
    19   10   11 1
    20   10   12 1
    21   12   13 2
    22   12   14 1
    23   14   15 1
    24   14   16 1
    25   14   44 1
    26   15   45 1
    27   15   46 1
    28   15   47 1
    29   16   48 1
    30   16   49 1
    31   16   50 1
    32   17   22 ar
    33   17   18 ar
    34   18   19 ar
    35   18   51 1
    36   19   20 ar
    37   19   52 1
    38   20   21 ar
    39   21   22 ar
    40   21   23 1
    41   22   53 1
    42   23   28 ar
    43   23   24 ar
    44   24   25 ar
    45   24   54 1
    46   25   26 ar
    47   25   55 1
    48   26   27 ar
    49   26   29 1
    50   27   28 ar
    51   27   56 1
    52   28   57 1
    53   29   30 2
    54   29   31 am
    55   31   32 1
    56   31   58 1
    57   32   37 1
    58   32   33 1
    59   32   59 1
    60   33   34 1
    61   33   60 1
    62   33   61 1
    63   34   35 1
    64   34   62 1
    65   34   63 1
    66   35   36 1
    67   36   37 1
    68   36   64 1
    69   36   65 1
    70   37   66 1
    71   37   67 1
@<TRIPOS>MOLECULE
CHEMBL585505__1
   67    71     0     0     0
SMALL
USER_CHARGES

@<TRIPOS>ATOM
      1 C1         -0.0184    1.5028    0.0103 C.3       1 <0>        -0.1067
      2 C2          0.0021   -0.0041    0.0020 C.ar      1 <0>         0.1418
      3 C3          0.0056   -0.6793   -1.2050 C.ar      1 <0>        -0.1697
      4 C4          0.0249   -2.0674   -1.2099 C.ar      1 <0>        -0.0627
      5 C5          0.0401   -2.7325    0.0029 C.ar      1 <0>        -0.1745
      6 C6          0.0355   -1.9882    1.1844 C.ar      1 <0>         0.2009
      7 N1          0.0218   -0.6595    1.1443 N.ar      1 <0>        -0.4599
      8 C7          0.0515   -2.6817    2.4870 C.2       1 <0>         0.0287
      9 C8          0.5180   -2.1806    3.6897 C.2       1 <0>         0.0870
     10 N2          0.3446   -3.1395    4.6181 N.2       1 <0>        -0.4707
     11 H1         -0.7906   -4.5689    2.1113 H         1 <0>         0.4225
     12 C9         -0.1949   -4.1896    4.0649 C.2       1 <0>         0.2458
     13 N3         -0.3997   -3.9536    2.7513 N.pl3     1 <0>        -0.5497
     14 C10        -0.5417   -5.4685    4.7825 C.3       1 <0>        -0.0145
     15 C11        -2.0106   -5.4318    5.2091 C.3       1 <0>        -0.1463
     16 C12        -0.3120   -6.6569    3.8467 C.3       1 <0>        -0.1546
     17 C13         1.1009   -0.8378    3.9137 C.ar      1 <0>         0.0518
     18 C14         1.8791   -0.2188    2.9280 C.ar      1 <0>        -0.1159
     19 C15         2.4051    1.0333    3.1729 C.ar      1 <0>         0.1006
     20 N4          2.1856    1.6508    4.3165 N.ar      1 <0>        -0.4718
     21 C16         1.4546    1.1043    5.2806 C.ar      1 <0>         0.1522
     22 C17         0.8838   -0.1527    5.1119 C.ar      1 <0>        -0.1277
     23 C18         1.2401    1.8439    6.5480 C.ar      1 <0>        -0.0131
     24 C19         0.4779    1.2734    7.5674 C.ar      1 <0>        -0.1099
     25 C20         0.2786    1.9590    8.7449 C.ar      1 <0>        -0.0588
     26 C21         0.8398    3.2262    8.9182 C.ar      1 <0>        -0.1322
     27 C22         1.6029    3.7966    7.8967 C.ar      1 <0>        -0.0903
     28 C23         1.8055    3.1071    6.7221 C.ar      1 <0>        -0.0892
     29 C24         0.6261    3.9632   10.1811 C.2       1 <0>         0.5610
     30 O1         -0.0384    3.4665   11.0697 O.2       1 <0>        -0.5341
     31 N5          1.1679    5.1859   10.3479 N.am      1 <0>        -0.7229
     32 C25         0.9561    5.9165   11.5999 C.3       1 <0>         0.1439
     33 C26        -0.3667    6.6855   11.5270 C.3       1 <0>        -0.1673
     34 C27        -0.5414    7.5074   12.8067 C.3       1 <0>         0.0629
     35 O2          0.5722    8.3896   12.9604 O.3       1 <0>        -0.3813
     36 C28         1.8312    7.7244   13.0815 C.3       1 <0>         0.0641
     37 C29         2.1012    6.9112   11.8128 C.3       1 <0>        -0.1647
     38 H2          1.0042    1.8801    0.0026 H         1 <0>         0.0826
     39 H3         -0.5455    1.8639   -0.8728 H         1 <0>         0.0779
     40 H4         -0.5286    1.8543    0.9071 H         1 <0>         0.0790
     41 H5         -0.0069   -0.1314   -2.1356 H         1 <0>         0.1394
     42 H6          0.0276   -2.6160   -2.1402 H         1 <0>         0.1397
     43 H7          0.0549   -3.8119    0.0356 H         1 <0>         0.1291
     44 H8          0.0902   -5.5731    5.6645 H         1 <0>         0.1091
     45 H9         -2.2614   -6.3568    5.7282 H         1 <0>         0.0713
     46 H10        -2.1743   -4.5852    5.8759 H         1 <0>         0.0655
     47 H11        -2.6426   -5.3272    4.3272 H         1 <0>         0.0539
     48 H12         0.7344   -6.6831    3.5428 H         1 <0>         0.0627
     49 H13        -0.5629   -7.5820    4.3657 H         1 <0>         0.0760
     50 H14        -0.9440   -6.5523    2.9647 H         1 <0>         0.0527
     51 H15         2.0658   -0.7155    1.9874 H         1 <0>         0.1270
     52 H16         3.0063    1.5146    2.4158 H         1 <0>         0.1567
     53 H17         0.2856   -0.5936    5.8957 H         1 <0>         0.1400
     54 H18         0.0437    0.2937    7.4331 H         1 <0>         0.1353
     55 H19        -0.3119    1.5172    9.5339 H         1 <0>         0.1399
     56 H20         2.0370    4.7766    8.0296 H         1 <0>         0.1274
     57 H21         2.3991    3.5461    5.9339 H         1 <0>         0.1426
     58 H22         1.6982    5.5822    9.6389 H         1 <0>         0.4008
     59 H23         0.9249    5.2128   12.4318 H         1 <0>         0.0919
     60 H24        -0.3533    7.3523   10.6648 H         1 <0>         0.0748
     61 H25        -1.1928    5.9809   11.4309 H         1 <0>         0.0805
     62 H26        -1.4604    8.0899   12.7419 H         1 <0>         0.0986
     63 H27        -0.5953    6.8371   13.6646 H         1 <0>         0.0546
     64 H28         2.6214    8.4633   13.2148 H         1 <0>         0.1004
     65 H29         1.8083    7.0570   13.9430 H         1 <0>         0.0549
     66 H30         3.0401    6.3681   11.9212 H         1 <0>         0.0821
     67 H31         2.1645    7.5826   10.9565 H         1 <0>         0.0790
@<TRIPOS>BOND
     1    1    2 1
     2    1   38 1
     3    1   39 1
     4    1   40 1
     5    2    7 ar
     6    2    3 ar
     7    3    4 ar
     8    3   41 1
     9    4    5 ar
    10    4   42 1
    11    5    6 ar
    12    5   43 1
    13    6    7 ar
    14    6    8 1
    15    8    9 2
    16    8   13 1
    17    9   10 1
    18    9   17 1
    19   10   12 2
    20   11   13 1
    21   12   14 1
    22   12   13 1
    23   14   15 1
    24   14   16 1
    25   14   44 1
    26   15   45 1
    27   15   46 1
    28   15   47 1
    29   16   48 1
    30   16   49 1
    31   16   50 1
    32   17   22 ar
    33   17   18 ar
    34   18   19 ar
    35   18   51 1
    36   19   20 ar
    37   19   52 1
    38   20   21 ar
    39   21   22 ar
    40   21   23 1
    41   22   53 1
    42   23   28 ar
    43   23   24 ar
    44   24   25 ar
    45   24   54 1
    46   25   26 ar
    47   25   55 1
    48   26   27 ar
    49   26   29 1
    50   27   28 ar
    51   27   56 1
    52   28   57 1
    53   29   30 2
    54   29   31 am
    55   31   32 1
    56   31   58 1
    57   32   37 1
    58   32   33 1
    59   32   59 1
    60   33   34 1
    61   33   60 1
    62   33   61 1
    63   34   35 1
    64   34   62 1
    65   34   63 1
    66   35   36 1
    67   36   37 1
    68   36   64 1
    69   36   65 1
    70   37   66 1
    71   37   67 1
@<TRIPOS>MOLECULE
CHEMBL1164843
   52    56     0     0     0
SMALL
USER_CHARGES

@<TRIPOS>ATOM
      1 C1         -0.7538    1.6069    0.3240 C.3       1 <0>        -0.1012
      2 C2         -0.5750    0.1138    0.2265 C.ar      1 <0>         0.1324
      3 C3         -0.6852   -0.5074   -1.0040 C.ar      1 <0>        -0.1665
      4 C4         -0.5199   -1.8825   -1.0896 C.ar      1 <0>        -0.0731
      5 C5         -0.2485   -2.5888    0.0694 C.ar      1 <0>        -0.1467
      6 C6         -0.1511   -1.8984    1.2759 C.ar      1 <0>         0.2091
      7 N1         -0.3107   -0.5814    1.3139 N.ar      1 <0>        -0.4496
      8 C7          0.1386   -2.6402    2.5262 C.2       1 <0>         0.1516
      9 C8          0.7597   -2.1117    3.6874 C.2       1 <0>        -0.1714
     10 C9          0.8377   -3.1195    4.6036 C.2       1 <0>         0.0814
     11 N2          0.2960   -4.2224    4.0512 N.pl3     1 <0>        -0.3552
     12 N3         -0.1392   -3.9040    2.7594 N.2       1 <0>        -0.2627
     13 C10         0.1772   -5.5325    4.6959 C.3       1 <0>         0.1755
     14 C11        -1.2623   -5.9777    4.6674 C.ar      1 <0>        -0.1221
     15 C12        -2.1101   -5.6401    5.7078 C.ar      1 <0>        -0.0697
     16 C13        -3.4329   -6.0443    5.6891 C.ar      1 <0>        -0.1292
     17 C14        -3.9154   -6.7880    4.6318 C.ar      1 <0>        -0.0738
     18 C15        -3.0658   -7.1318    3.5794 C.ar      1 <0>        -0.1419
     19 C16        -1.7334   -6.7159    3.6017 C.ar      1 <0>        -0.0205
     20 C17        -3.5759   -7.9289    2.4435 C.2       1 <0>         0.5631
     21 O1         -2.8335   -8.2269    1.5283 O.2       1 <0>        -0.5350
     22 N4         -4.8639   -8.3250    2.4227 N.am      1 <0>        -0.8508
     23 C18         1.2362   -0.7214    3.8709 C.ar      1 <0>         0.2601
     24 C19         0.9140   -0.0339    5.0536 C.ar      1 <0>        -0.1455
     25 C20         1.3458    1.2446    5.2349 C.ar      1 <0>        -0.0443
     26 C21         2.1135    1.8448    4.2139 C.ar      1 <0>         0.0707
     27 C22         2.4033    1.0971    3.0463 C.ar      1 <0>         0.0932
     28 N5          1.9591   -0.1556    2.9228 N.ar      1 <0>        -0.4411
     29 C23         3.1701    1.6998    2.0293 C.ar      1 <0>        -0.0449
     30 C24         3.5999    2.9823    2.2179 C.ar      1 <0>        -0.1612
     31 C25         3.2775    3.6589    3.3921 C.ar      1 <0>         0.1262
     32 N6          2.5640    3.0950    4.3370 N.ar      1 <0>        -0.4647
     33 H1          0.1906    2.1015    0.0968 H         1 <0>         0.0758
     34 H2         -1.5133    1.9292   -0.3882 H         1 <0>         0.0757
     35 H3         -1.0679    1.8701    1.3341 H         1 <0>         0.0727
     36 H4         -0.8982    0.0722   -1.8901 H         1 <0>         0.1350
     37 H5         -0.6016   -2.3903   -2.0392 H         1 <0>         0.1377
     38 H6         -0.1145   -3.6601    0.0392 H         1 <0>         0.1379
     39 H7          1.2592   -3.0463    5.5953 H         1 <0>         0.1845
     40 H8          0.7922   -6.2572    4.1623 H         1 <0>         0.1024
     41 H9          0.5149   -5.4607    5.7298 H         1 <0>         0.1141
     42 H10        -1.7372   -5.0587    6.5381 H         1 <0>         0.1295
     43 H11        -4.0894   -5.7775    6.5042 H         1 <0>         0.1336
     44 H12        -4.9482   -7.1035    4.6188 H         1 <0>         0.1287
     45 H13        -1.0719   -6.9749    2.7883 H         1 <0>         0.1400
     46 H14        -5.4563   -8.0871    3.1531 H         1 <0>         0.4008
     47 H15        -5.1986   -8.8479    1.6774 H         1 <0>         0.4072
     48 H16         0.3244   -0.5189    5.8175 H         1 <0>         0.1401
     49 H17         1.1063    1.7865    6.1379 H         1 <0>         0.1460
     50 H18         3.4119    1.1616    1.1247 H         1 <0>         0.1415
     51 H19         4.1898    3.4717    1.4570 H         1 <0>         0.1423
     52 H20         3.6243    4.6726    3.5280 H         1 <0>         0.1623
@<TRIPOS>BOND
     1    1    2 1
     2    1   33 1
     3    1   34 1
     4    1   35 1
     5    2    7 ar
     6    2    3 ar
     7    3    4 ar
     8    3   36 1
     9    4    5 ar
    10    4   37 1
    11    5    6 ar
    12    5   38 1
    13    6    7 ar
    14    6    8 1
    15    8   12 2
    16    8    9 1
    17    9   10 2
    18    9   23 1
    19   10   11 1
    20   10   39 1
    21   11   12 1
    22   11   13 1
    23   13   14 1
    24   13   40 1
    25   13   41 1
    26   14   19 ar
    27   14   15 ar
    28   15   16 ar
    29   15   42 1
    30   16   17 ar
    31   16   43 1
    32   17   18 ar
    33   17   44 1
    34   18   19 ar
    35   18   20 1
    36   19   45 1
    37   20   21 2
    38   20   22 am
    39   22   46 1
    40   22   47 1
    41   23   28 ar
    42   23   24 ar
    43   24   25 ar
    44   24   48 1
    45   25   26 ar
    46   25   49 1
    47   26   32 ar
    48   26   27 ar
    49   27   28 ar
    50   27   29 ar
    51   29   30 ar
    52   29   50 1
    53   30   31 ar
    54   30   51 1
    55   31   32 ar
    56   31   52 1
@<TRIPOS>MOLECULE
CHEMBL610195
   37    40     0     0     0
SMALL
USER_CHARGES

@<TRIPOS>ATOM
      1 C1         -0.0192    1.4590   -0.1039 C.3       1 <0>         0.0921
      2 N1          0.0014   -0.0048   -0.0487 N.pl3     1 <0>        -0.3841
      3 C2         -1.1088   -0.8135    0.0028 C.2       1 <0>         0.2508
      4 C3         -0.6759   -2.1318    0.0439 C.2       1 <0>        -0.2311
      5 C4          0.7908   -2.0939    0.0146 C.2       1 <0>         0.5506
      6 O1          1.5394   -3.0537    0.0363 O.2       1 <0>        -0.5254
      7 N2          1.1535   -0.7971   -0.0462 N.am      1 <0>        -0.4140
      8 C5          2.5302   -0.2990   -0.0974 C.3       1 <0>         0.0984
      9 C6         -1.5244   -3.3355    0.1056 C.2       1 <0>         0.0772
     10 C7         -1.6190   -4.2971   -0.8543 C.2       1 <0>        -0.1852
     11 C8         -2.5392   -5.2542   -0.3805 C.2       1 <0>        -0.2080
     12 C9         -2.9563   -4.8359    0.8301 C.2       1 <0>        -0.0431
     13 O2         -2.3368   -3.6790    1.1236 O.3       1 <0>        -0.1732
     14 C10        -2.5113   -0.3608    0.0132 C.ar      1 <0>        -0.0339
     15 C11        -2.9052    0.6756    0.8817 C.ar      1 <0>        -0.0828
     16 C12        -4.1902    1.1090    0.9084 C.ar      1 <0>        -0.0748
     17 C13        -5.1509    0.5232    0.0621 C.ar      1 <0>         0.0895
     18 C14        -4.7678   -0.5217   -0.8177 C.ar      1 <0>         0.0776
     19 C15        -3.4329   -0.9544   -0.8362 C.ar      1 <0>        -0.0257
     20 N3         -5.6820   -1.0770   -1.6222 N.ar      1 <0>        -0.4160
     21 C16        -6.9235   -0.6498   -1.5895 C.ar      1 <0>         0.0802
     22 C17        -7.3005    0.3790   -0.7238 C.ar      1 <0>         0.0867
     23 N4         -6.4215    0.9394    0.0761 N.ar      1 <0>        -0.4258
     24 H1          1.0029    1.8356   -0.1423 H         1 <0>         0.0953
     25 H2         -0.5589    1.7814   -0.9943 H         1 <0>         0.0864
     26 H3         -0.5170    1.8491    0.7839 H         1 <0>         0.0857
     27 H4          2.8959   -0.1369    0.9166 H         1 <0>         0.0727
     28 H5          3.1631   -1.0310   -0.5992 H         1 <0>         0.1023
     29 H6          2.5561    0.6416   -0.6476 H         1 <0>         0.0819
     30 H7         -1.0916   -4.3214   -1.7964 H         1 <0>         0.1468
     31 H8         -2.8511   -6.1530   -0.8917 H         1 <0>         0.1489
     32 H9         -3.6671   -5.3473    1.4622 H         1 <0>         0.2008
     33 H10        -2.1752    1.1306    1.5347 H         1 <0>         0.1400
     34 H11        -4.4770    1.9045    1.5802 H         1 <0>         0.1486
     35 H12        -3.1266   -1.7461   -1.5039 H         1 <0>         0.1504
     36 H13        -7.6604   -1.0986   -2.2391 H         1 <0>         0.1802
     37 H14        -8.3260    0.7174   -0.7110 H         1 <0>         0.1798
@<TRIPOS>BOND
     1    1    2 1
     2    1   24 1
     3    1   25 1
     4    1   26 1
     5    2    7 1
     6    2    3 1
     7    3    4 2
     8    3   14 1
     9    4    5 1
    10    4    9 1
    11    5    6 2
    12    5    7 am
    13    7    8 1
    14    8   27 1
    15    8   28 1
    16    8   29 1
    17    9   13 1
    18    9   10 2
    19   10   11 1
    20   10   30 1
    21   11   12 2
    22   11   31 1
    23   12   13 1
    24   12   32 1
    25   14   19 ar
    26   14   15 ar
    27   15   16 ar
    28   15   33 1
    29   16   17 ar
    30   16   34 1
    31   17   23 ar
    32   17   18 ar
    33   18   19 ar
    34   18   20 ar
    35   19   35 1
    36   20   21 ar
    37   21   22 ar
    38   21   36 1
    39   22   23 ar
    40   22   37 1
@<TRIPOS>MOLECULE
CHEMBL594600
   41    45     0     0     0
SMALL
USER_CHARGES

@<TRIPOS>ATOM
      1 C1          0.0930    1.4475   -0.2538 C.3       1 <0>         0.0899
      2 N1          0.0511   -0.0102   -0.1141 N.pl3     1 <0>        -0.3809
      3 C2         -1.0852   -0.7777   -0.1523 C.2       1 <0>         0.2480
      4 C3         -0.7121   -2.1041    0.0161 C.2       1 <0>        -0.2766
      5 C4          0.7468   -2.1147    0.1636 C.2       1 <0>         0.5471
      6 O1          1.4497   -3.0946    0.3310 O.2       1 <0>        -0.5266
      7 N2          1.1638   -0.8360    0.0731 N.am      1 <0>        -0.4132
      8 C5          2.5549   -0.3850    0.1600 C.3       1 <0>         0.0971
      9 C6         -1.6104   -3.2771    0.0418 C.ar      1 <0>         0.0671
     10 C7         -2.5359   -3.4076    1.1003 C.ar      1 <0>        -0.0631
     11 C8         -3.3820   -4.4571    1.1768 C.ar      1 <0>        -0.0758
     12 C9         -3.3420   -5.4879    0.1381 C.ar      1 <0>         0.0860
     13 C10        -2.3693   -5.3388   -0.9629 C.ar      1 <0>         0.0990
     14 C11        -1.5234   -4.2058   -0.9691 C.ar      1 <0>        -0.0827
     15 N3         -2.5077   -6.3672   -1.7699 N.2       1 <0>        -0.2617
     16 O2         -3.5339   -7.1946   -1.2495 O.3       1 <0>         0.0561
     17 N4         -4.0160   -6.5949   -0.0594 N.2       1 <0>        -0.2588
     18 C12        -2.4609   -0.2811   -0.3391 C.ar      1 <0>        -0.0276
     19 C13        -3.3116   -0.9109   -1.2676 C.ar      1 <0>        -0.0699
     20 C14        -4.5810   -0.4714   -1.4567 C.ar      1 <0>        -0.0709
     21 C15        -5.0649    0.6269   -0.7210 C.ar      1 <0>         0.0911
     22 C16        -4.2187    1.2705    0.2182 C.ar      1 <0>         0.0757
     23 C17        -2.9098    0.7992    0.4049 C.ar      1 <0>        -0.0518
     24 N5         -4.6802    2.3141    0.9173 N.ar      1 <0>        -0.4214
     25 C18        -5.9106    2.7322    0.7276 C.ar      1 <0>         0.0824
     26 C19        -6.7440    2.0983   -0.1968 C.ar      1 <0>         0.0878
     27 N6         -6.3137    1.0721   -0.8953 N.ar      1 <0>        -0.4239
     28 H1          1.1260    1.7892   -0.1889 H         1 <0>         0.0961
     29 H2         -0.3238    1.7320   -1.2200 H         1 <0>         0.0866
     30 H3         -0.4921    1.9059    0.5434 H         1 <0>         0.0866
     31 H4          2.8036   -0.1722    1.1997 H         1 <0>         0.0733
     32 H5          3.2144   -1.1659   -0.2189 H         1 <0>         0.1026
     33 H6          2.6818    0.5186   -0.4362 H         1 <0>         0.0817
     34 H7         -2.5675   -2.6489    1.8684 H         1 <0>         0.1469
     35 H8         -4.0811   -4.5355    1.9963 H         1 <0>         0.1546
     36 H9         -0.8064   -4.0715   -1.7655 H         1 <0>         0.1495
     37 H10        -2.9490   -1.7542   -1.8366 H         1 <0>         0.1444
     38 H11        -5.2212   -0.9646   -2.1732 H         1 <0>         0.1494
     39 H12        -2.2560    1.2772    1.1194 H         1 <0>         0.1457
     40 H13        -6.2819    3.5745    1.2923 H         1 <0>         0.1803
     41 H14        -7.7531    2.4559   -0.3391 H         1 <0>         0.1801
@<TRIPOS>BOND
     1    1    2 1
     2    1   28 1
     3    1   29 1
     4    1   30 1
     5    2    7 1
     6    2    3 1
     7    3    4 2
     8    3   18 1
     9    4    5 1
    10    4    9 1
    11    5    6 2
    12    5    7 am
    13    7    8 1
    14    8   31 1
    15    8   32 1
    16    8   33 1
    17    9   14 ar
    18    9   10 ar
    19   10   11 ar
    20   10   34 1
    21   11   12 ar
    22   11   35 1
    23   12   17 2
    24   12   13 ar
    25   13   14 ar
    26   13   15 2
    27   14   36 1
    28   15   16 1
    29   16   17 1
    30   18   23 ar
    31   18   19 ar
    32   19   20 ar
    33   19   37 1
    34   20   21 ar
    35   20   38 1
    36   21   27 ar
    37   21   22 ar
    38   22   23 ar
    39   22   24 ar
    40   23   39 1
    41   24   25 ar
    42   25   26 ar
    43   25   40 1
    44   26   27 ar
    45   26   41 1
@<TRIPOS>MOLECULE
CHEMBL229599
   54    58     0     0     0
SMALL
USER_CHARGES

@<TRIPOS>ATOM
      1 C1         -0.0184    1.5028    0.0103 C.3       1 <0>        -0.1075
      2 C2          0.0021   -0.0041    0.0020 C.ar      1 <0>         0.1424
      3 C3          0.0055   -0.6792   -1.2049 C.ar      1 <0>        -0.1666
      4 C4          0.0244   -2.0675   -1.2099 C.ar      1 <0>        -0.0627
      5 C5          0.0392   -2.7326    0.0026 C.ar      1 <0>        -0.1715
      6 C6          0.0347   -1.9884    1.1844 C.ar      1 <0>         0.1960
      7 N1          0.0218   -0.6595    1.1444 N.ar      1 <0>        -0.4583
      8 C7          0.0503   -2.6818    2.4867 C.2       1 <0>         0.0416
      9 C8          0.5118   -2.1790    3.6909 C.2       1 <0>         0.0903
     10 N2          0.3402   -3.1390    4.6185 N.2       1 <0>        -0.4504
     11 C9         -0.1935   -4.1914    4.0638 C.2       1 <0>         0.2112
     12 N3         -0.3965   -3.9564    2.7500 N.pl3     1 <0>        -0.5437
     13 H1         -0.7843   -4.5729    2.1093 H         1 <0>         0.4256
     14 C10        -0.5363   -5.4719    4.7806 C.3       1 <0>         0.2133
     15 N4          0.6491   -6.3307    4.8400 N.pl3     1 <0>        -0.7431
     16 C11         0.5763   -7.5799    5.4614 C.ar      1 <0>         0.2109
     17 C12        -0.6225   -8.0105    6.0184 C.ar      1 <0>        -0.1715
     18 C13        -0.6997   -9.2455    6.6337 C.ar      1 <0>        -0.0771
     19 C14         0.4128  -10.0599    6.6995 C.ar      1 <0>        -0.1431
     20 C15         1.6211   -9.6370    6.1434 C.ar      1 <0>        -0.0916
     21 C16         1.6980   -8.3927    5.5176 C.ar      1 <0>        -0.1302
     22 C17         2.8145  -10.5073    6.2129 C.2       1 <0>         0.5620
     23 O1          3.8658  -10.1371    5.7280 O.2       1 <0>        -0.5389
     24 N5          2.7365  -11.7111    6.8140 N.am      1 <0>        -0.8498
     25 C18         1.0884   -0.8341    3.9167 C.ar      1 <0>         0.0245
     26 C19         1.8665   -0.2314    2.9127 C.ar      1 <0>        -0.0426
     27 C20         2.4058    1.0005    3.0958 C.ar      1 <0>        -0.0918
     28 C21         2.1896    1.6922    4.3024 C.ar      1 <0>         0.0864
     29 C22         1.4061    1.0941    5.3228 C.ar      1 <0>         0.0774
     30 C23         0.8526   -0.1782    5.1116 C.ar      1 <0>        -0.0542
     31 N6          1.2002    1.7526    6.4695 N.ar      1 <0>        -0.4221
     32 C24         1.7249    2.9451    6.6388 C.ar      1 <0>         0.0713
     33 C25         2.4957    3.5333    5.6346 C.ar      1 <0>         0.0745
     34 N7          2.7125    2.9066    4.5003 N.ar      1 <0>        -0.4273
     35 H2          1.0042    1.8801    0.0026 H         1 <0>         0.0832
     36 H3         -0.5455    1.8639   -0.8728 H         1 <0>         0.0783
     37 H4         -0.5286    1.8543    0.9071 H         1 <0>         0.0792
     38 H5         -0.0067   -0.1313   -2.1355 H         1 <0>         0.1402
     39 H6          0.0270   -2.6159   -2.1403 H         1 <0>         0.1405
     40 H7          0.0536   -3.8121    0.0352 H         1 <0>         0.1302
     41 H8         -0.8705   -5.2435    5.7927 H         1 <0>         0.0991
     42 H9         -1.3320   -5.9875    4.2429 H         1 <0>         0.0808
     43 H10         1.4845   -6.0321    4.4479 H         1 <0>         0.4057
     44 H11        -1.4963   -7.3775    5.9704 H         1 <0>         0.1268
     45 H12        -1.6337   -9.5745    7.0649 H         1 <0>         0.1300
     46 H13         0.3484  -11.0242    7.1815 H         1 <0>         0.1237
     47 H14         2.6292   -8.0619    5.0819 H         1 <0>         0.1344
     48 H15         1.8975  -12.0066    7.2010 H         1 <0>         0.4021
     49 H16         3.5194  -12.2820    6.8596 H         1 <0>         0.4059
     50 H17         2.0375   -0.7555    1.9840 H         1 <0>         0.1265
     51 H18         3.0015    1.4502    2.3153 H         1 <0>         0.1381
     52 H19         0.2506   -0.6436    5.8780 H         1 <0>         0.1434
     53 H20         1.5579    3.4760    7.5643 H         1 <0>         0.1745
     54 H21         2.9187    4.5145    5.7918 H         1 <0>         0.1742
@<TRIPOS>BOND
     1    1    2 1
     2    1   35 1
     3    1   36 1
     4    1   37 1
     5    2    7 ar
     6    2    3 ar
     7    3    4 ar
     8    3   38 1
     9    4    5 ar
    10    4   39 1
    11    5    6 ar
    12    5   40 1
    13    6    7 ar
    14    6    8 1
    15    8   12 1
    16    8    9 2
    17    9   10 1
    18    9   25 1
    19   10   11 2
    20   11   12 1
    21   11   14 1
    22   12   13 1
    23   14   15 1
    24   14   41 1
    25   14   42 1
    26   15   16 1
    27   15   43 1
    28   16   21 ar
    29   16   17 ar
    30   17   18 ar
    31   17   44 1
    32   18   19 ar
    33   18   45 1
    34   19   20 ar
    35   19   46 1
    36   20   21 ar
    37   20   22 1
    38   21   47 1
    39   22   23 2
    40   22   24 am
    41   24   48 1
    42   24   49 1
    43   25   30 ar
    44   25   26 ar
    45   26   27 ar
    46   26   50 1
    47   27   28 ar
    48   27   51 1
    49   28   34 ar
    50   28   29 ar
    51   29   30 ar
    52   29   31 ar
    53   30   52 1
    54   31   32 ar
    55   32   33 ar
    56   32   53 1
    57   33   34 ar
    58   33   54 1
@<TRIPOS>MOLECULE
CHEMBL229599__1
   54    58     0     0     0
SMALL
USER_CHARGES

@<TRIPOS>ATOM
      1 C1         -0.0184    1.5028    0.0103 C.3       1 <0>        -0.1039
      2 C2          0.0021   -0.0041    0.0020 C.ar      1 <0>         0.1334
      3 C3          0.0055   -0.6793   -1.2045 C.ar      1 <0>        -0.1695
      4 C4          0.0244   -2.0673   -1.2086 C.ar      1 <0>        -0.0715
      5 C5          0.0392   -2.7315    0.0050 C.ar      1 <0>        -0.1455
      6 C6          0.0346   -1.9873    1.1847 C.ar      1 <0>         0.2052
      7 N1          0.0218   -0.6598    1.1445 N.ar      1 <0>        -0.4699
      8 C7          0.0498   -2.6823    2.4914 C.2       1 <0>         0.0696
      9 C8          0.5150   -2.1658    3.6884 C.2       1 <0>         0.0647
     10 N2          0.3352   -3.1530    4.6280 N.pl3     1 <0>        -0.5487
     11 C9         -0.2202   -4.2165    3.9950 C.2       1 <0>         0.2036
     12 N3         -0.3917   -3.9307    2.7348 N.2       1 <0>        -0.4438
     13 H1          0.5634   -3.0992    5.5692 H         1 <0>         0.4270
     14 C10        -0.5873   -5.5238    4.6486 C.3       1 <0>         0.2148
     15 N4         -2.0012   -5.4983    5.0313 N.pl3     1 <0>        -0.7434
     16 C11        -2.5752   -6.6069    5.6586 C.ar      1 <0>         0.2111
     17 C12        -1.8032   -7.7320    5.9249 C.ar      1 <0>        -0.1718
     18 C13        -2.3663   -8.8309    6.5457 C.ar      1 <0>        -0.0772
     19 C14        -3.6988   -8.8188    6.9055 C.ar      1 <0>        -0.1434
     20 C15        -4.4825   -7.6942    6.6426 C.ar      1 <0>        -0.0914
     21 C16        -3.9132   -6.5829    6.0208 C.ar      1 <0>        -0.1303
     22 C17        -5.9104   -7.6789    7.0266 C.2       1 <0>         0.5619
     23 O1         -6.5911   -6.6985    6.7967 O.2       1 <0>        -0.5387
     24 N5         -6.4570   -8.7521    7.6315 N.am      1 <0>        -0.8498
     25 C18         1.0893   -0.8247    3.9110 C.ar      1 <0>         0.0201
     26 C19         2.0344   -0.3098    3.0037 C.ar      1 <0>        -0.0449
     27 C20         2.5760    0.9202    3.1875 C.ar      1 <0>        -0.0807
     28 C21         2.1952    1.7005    4.2957 C.ar      1 <0>         0.0878
     29 C22         1.2431    1.1932    5.2174 C.ar      1 <0>         0.0807
     30 C23         0.6900   -0.0792    5.0085 C.ar      1 <0>        -0.0730
     31 N6          0.8815    1.9361    6.2704 N.ar      1 <0>        -0.4247
     32 C24         1.4112    3.1265    6.4400 C.ar      1 <0>         0.0760
     33 C25         2.3474    3.6253    5.5329 C.ar      1 <0>         0.0778
     34 N7          2.7187    2.9148    4.4917 N.ar      1 <0>        -0.4247
     35 H2          1.0042    1.8801    0.0026 H         1 <0>         0.0788
     36 H3         -0.5455    1.8639   -0.8728 H         1 <0>         0.0760
     37 H4         -0.5286    1.8543    0.9071 H         1 <0>         0.0747
     38 H5         -0.0067   -0.1318   -2.1354 H         1 <0>         0.1358
     39 H6          0.0271   -2.6165   -2.1385 H         1 <0>         0.1379
     40 H7          0.0536   -3.8109    0.0384 H         1 <0>         0.1403
     41 H8         -0.4151   -6.3411    3.9483 H         1 <0>         0.0981
     42 H9          0.0269   -5.6710    5.5369 H         1 <0>         0.0808
     43 H10        -2.5389   -4.7118    4.8491 H         1 <0>         0.4058
     44 H11        -0.7601   -7.7475    5.6454 H         1 <0>         0.1267
     45 H12        -1.7617   -9.7023    6.7497 H         1 <0>         0.1299
     46 H13        -4.1351   -9.6797    7.3901 H         1 <0>         0.1236
     47 H14        -4.5137   -5.7083    5.8185 H         1 <0>         0.1343
     48 H15        -5.9138   -9.5345    7.8149 H         1 <0>         0.4020
     49 H16        -7.3937   -8.7420    7.8834 H         1 <0>         0.4059
     50 H17         2.3322   -0.9017    2.1508 H         1 <0>         0.1308
     51 H18         3.3005    1.3013    2.4831 H         1 <0>         0.1425
     52 H19        -0.0386   -0.4760    5.6998 H         1 <0>         0.1364
     53 H20         1.1188    3.7253    7.2899 H         1 <0>         0.1765
     54 H21         2.7714    4.6063    5.6885 H         1 <0>         0.1766
@<TRIPOS>BOND
     1    1    2 1
     2    1   35 1
     3    1   36 1
     4    1   37 1
     5    2    7 ar
     6    2    3 ar
     7    3    4 ar
     8    3   38 1
     9    4    5 ar
    10    4   39 1
    11    5    6 ar
    12    5   40 1
    13    6    7 ar
    14    6    8 1
    15    8   12 1
    16    8    9 2
    17    9   25 1
    18    9   10 1
    19   10   11 1
    20   10   13 1
    21   11   14 1
    22   11   12 2
    23   14   15 1
    24   14   41 1
    25   14   42 1
    26   15   16 1
    27   15   43 1
    28   16   21 ar
    29   16   17 ar
    30   17   18 ar
    31   17   44 1
    32   18   19 ar
    33   18   45 1
    34   19   20 ar
    35   19   46 1
    36   20   21 ar
    37   20   22 1
    38   21   47 1
    39   22   23 2
    40   22   24 am
    41   24   48 1
    42   24   49 1
    43   25   30 ar
    44   25   26 ar
    45   26   27 ar
    46   26   50 1
    47   27   28 ar
    48   27   51 1
    49   28   34 ar
    50   28   29 ar
    51   29   30 ar
    52   29   31 ar
    53   30   52 1
    54   31   32 ar
    55   32   33 ar
    56   32   53 1
    57   33   34 ar
    58   33   54 1
@<TRIPOS>MOLECULE
CHEMBL118928
   32    34     0     0     0
SMALL
USER_CHARGES

@<TRIPOS>ATOM
      1 C1         -0.0184    1.5028    0.0103 C.3       1 <0>        -0.1034
      2 C2          0.0021   -0.0041    0.0020 C.ar      1 <0>         0.1323
      3 C3          0.0055   -0.6794   -1.2045 C.ar      1 <0>        -0.1652
      4 C4          0.0244   -2.0670   -1.2080 C.ar      1 <0>        -0.0725
      5 C5          0.0391   -2.7306    0.0065 C.ar      1 <0>        -0.1479
      6 C6          0.0346   -1.9865    1.1848 C.ar      1 <0>         0.1985
      7 N1          0.0218   -0.6599    1.1445 N.ar      1 <0>        -0.4530
      8 C7          0.0503   -2.6820    2.4936 C.2       1 <0>         0.1338
      9 C8          0.5279   -2.1485    3.7172 C.2       1 <0>        -0.1695
     10 C9          0.3639   -3.1053    4.6730 C.2       1 <0>         0.0717
     11 N2         -0.1885   -4.1870    4.0849 N.pl3     1 <0>        -0.4635
     12 H1         -0.4169   -5.0190    4.5282 H         1 <0>         0.4462
     13 N3         -0.3817   -3.9023    2.7279 N.2       1 <0>        -0.2715
     14 C10         1.1018   -0.7952    3.9198 C.ar      1 <0>         0.0030
     15 C11         2.1067   -0.3292    3.0741 C.ar      1 <0>        -0.0655
     16 C12         2.6382    0.9293    3.2650 C.ar      1 <0>        -0.1424
     17 C13         2.1734    1.7312    4.2983 C.ar      1 <0>         0.1003
     18 C14         1.1726    1.2698    5.1421 C.ar      1 <0>        -0.1440
     19 C15         0.6328    0.0146    4.9525 C.ar      1 <0>        -0.0945
     20 O1          2.6996    2.9704    4.4844 O.3       1 <0>        -0.5018
     21 H2          1.0042    1.8801    0.0026 H         1 <0>         0.0788
     22 H3         -0.5455    1.8639   -0.8728 H         1 <0>         0.0756
     23 H4         -0.5286    1.8543    0.9071 H         1 <0>         0.0774
     24 H5         -0.0067   -0.1322   -2.1355 H         1 <0>         0.1372
     25 H6          0.0271   -2.6167   -2.1375 H         1 <0>         0.1391
     26 H7          0.0536   -3.8100    0.0406 H         1 <0>         0.1390
     27 H8          0.6293   -3.0144    5.7160 H         1 <0>         0.1852
     28 H9          2.4692   -0.9529    2.2704 H         1 <0>         0.1143
     29 H10         3.4170    1.2910    2.6100 H         1 <0>         0.1242
     30 H11         0.8132    1.8958    5.9455 H         1 <0>         0.1265
     31 H12        -0.1490   -0.3421    5.6066 H         1 <0>         0.1231
     32 H13         2.2407    3.6695    3.9990 H         1 <0>         0.3888
@<TRIPOS>BOND
     1    1    2 1
     2    1   21 1
     3    1   22 1
     4    1   23 1
     5    2    7 ar
     6    2    3 ar
     7    3    4 ar
     8    3   24 1
     9    4    5 ar
    10    4   25 1
    11    5    6 ar
    12    5   26 1
    13    6    7 ar
    14    6    8 1
    15    8   13 2
    16    8    9 1
    17    9   10 2
    18    9   14 1
    19   10   11 1
    20   10   27 1
    21   11   12 1
    22   11   13 1
    23   14   19 ar
    24   14   15 ar
    25   15   16 ar
    26   15   28 1
    27   16   17 ar
    28   16   29 1
    29   17   18 ar
    30   17   20 1
    31   18   19 ar
    32   18   30 1
    33   19   31 1
    34   20   32 1
@<TRIPOS>MOLECULE
CHEMBL118928__1
   32    34     0     0     0
SMALL
USER_CHARGES

@<TRIPOS>ATOM
      1 C1         -0.0184    1.5028    0.0103 C.3       1 <0>        -0.1056
      2 C2          0.0021   -0.0041    0.0020 C.ar      1 <0>         0.1391
      3 C3          0.0055   -0.6793   -1.2050 C.ar      1 <0>        -0.1644
      4 C4          0.0244   -2.0673   -1.2096 C.ar      1 <0>        -0.0654
      5 C5          0.0392   -2.7322    0.0035 C.ar      1 <0>        -0.1675
      6 C6          0.0347   -1.9879    1.1844 C.ar      1 <0>         0.1842
      7 N1          0.0218   -0.6595    1.1443 N.ar      1 <0>        -0.4481
      8 C7          0.0503   -2.6816    2.4879 C.2       1 <0>         0.1334
      9 C8          0.5207   -2.1705    3.6900 C.2       1 <0>        -0.1526
     10 C9          0.3434   -3.1667    4.6658 C.2       1 <0>         0.0639
     11 N2         -0.1973   -4.2127    4.0993 N.2       1 <0>        -0.2722
     12 H1         -0.7909   -4.5502    2.0922 H         1 <0>         0.4417
     13 N3         -0.4001   -3.9440    2.7408 N.pl3     1 <0>        -0.4638
     14 C10         1.1029   -0.8239    3.9047 C.ar      1 <0>         0.0015
     15 C11         2.1124   -0.3572    3.0639 C.ar      1 <0>        -0.0681
     16 C12         2.6519    0.8958    3.2662 C.ar      1 <0>        -0.1431
     17 C13         2.1912    1.6919    4.3060 C.ar      1 <0>         0.1010
     18 C14         1.1865    1.2300    5.1452 C.ar      1 <0>        -0.1433
     19 C15         0.6381   -0.0194    4.9442 C.ar      1 <0>        -0.0905
     20 O1          2.7252    2.9260    4.5030 O.3       1 <0>        -0.5014
     21 H2          1.0042    1.8801    0.0026 H         1 <0>         0.0812
     22 H3         -0.5455    1.8639   -0.8728 H         1 <0>         0.0773
     23 H4         -0.5286    1.8543    0.9071 H         1 <0>         0.0794
     24 H5         -0.0067   -0.1315   -2.1356 H         1 <0>         0.1398
     25 H6          0.0270   -2.6161   -2.1398 H         1 <0>         0.1411
     26 H7          0.0536   -3.8116    0.0363 H         1 <0>         0.1326
     27 H8          0.6101   -3.0820    5.7089 H         1 <0>         0.1919
     28 H9          2.4718   -0.9763    2.2552 H         1 <0>         0.1128
     29 H10         3.4339    1.2580    2.6153 H         1 <0>         0.1239
     30 H11         0.8305    1.8516    5.9535 H         1 <0>         0.1274
     31 H12        -0.1468   -0.3763    5.5945 H         1 <0>         0.1255
     32 H13         2.2712    3.6322    4.0232 H         1 <0>         0.3886
@<TRIPOS>BOND
     1    1    2 1
     2    1   21 1
     3    1   22 1
     4    1   23 1
     5    2    7 ar
     6    2    3 ar
     7    3    4 ar
     8    3   24 1
     9    4    5 ar
    10    4   25 1
    11    5    6 ar
    12    5   26 1
    13    6    7 ar
    14    6    8 1
    15    8    9 2
    16    8   13 1
    17    9   10 1
    18    9   14 1
    19   10   11 2
    20   10   27 1
    21   11   13 1
    22   12   13 1
    23   14   19 ar
    24   14   15 ar
    25   15   16 ar
    26   15   28 1
    27   16   17 ar
    28   16   29 1
    29   17   18 ar
    30   17   20 1
    31   18   19 ar
    32   18   30 1
    33   19   31 1
    34   20   32 1
@<TRIPOS>MOLECULE
CHEMBL593708
   44    47     0     0     0
SMALL
USER_CHARGES

@<TRIPOS>ATOM
      1 C1          0.0878    1.4498   -0.2297 C.3       1 <0>         0.0937
      2 N1          0.0488   -0.0092   -0.1034 N.pl3     1 <0>        -0.3892
      3 C2         -1.0875   -0.7787   -0.1383 C.2       1 <0>         0.2271
      4 C3         -0.7117   -2.1042    0.0130 C.2       1 <0>        -0.2497
      5 C4          0.7476   -2.1156    0.1463 C.2       1 <0>         0.5419
      6 O1          1.4524   -3.0970    0.2970 O.2       1 <0>        -0.5310
      7 N2          1.1638   -0.8360    0.0655 N.am      1 <0>        -0.4145
      8 C5          2.5554   -0.3853    0.1449 C.3       1 <0>         0.0981
      9 C6         -1.6103   -3.2804    0.0356 C.ar      1 <0>         0.0125
     10 C7         -2.5342   -3.4351    1.0710 C.ar      1 <0>        -0.1038
     11 C8         -3.3733   -4.5311    1.0934 C.ar      1 <0>        -0.1160
     12 C9         -3.3051   -5.4812    0.0933 C.ar      1 <0>        -0.1141
     13 C10        -2.3855   -5.3387   -0.9474 C.ar      1 <0>        -0.0587
     14 C11        -1.5398   -4.2320   -0.9789 C.ar      1 <0>        -0.0881
     15 C12        -2.3130   -6.3570   -2.0166 C.2       1 <0>        -0.1167
     16 C13        -3.1218   -7.4068   -1.9879 C.2       1 <0>        -0.1802
     17 C14        -2.4660   -0.2823   -0.3072 C.ar      1 <0>        -0.0173
     18 C15        -3.3251   -0.9057   -1.2321 C.ar      1 <0>        -0.0643
     19 C16        -4.5970   -0.4666   -1.4046 C.ar      1 <0>        -0.0736
     20 C17        -5.0749    0.6251   -0.6552 C.ar      1 <0>         0.0894
     21 C18        -4.2198    1.2624    0.2802 C.ar      1 <0>         0.0767
     22 C19        -2.9085    0.7913    0.4498 C.ar      1 <0>        -0.0585
     23 N3         -4.6755    2.2995    0.9926 N.ar      1 <0>        -0.4224
     24 C20        -5.9086    2.7169    0.8194 C.ar      1 <0>         0.0800
     25 C21        -6.7507    2.0892   -0.1012 C.ar      1 <0>         0.0844
     26 N4         -6.3261    1.0699   -0.8130 N.ar      1 <0>        -0.4239
     27 H1          1.1210    1.7921   -0.1713 H         1 <0>         0.0934
     28 H2         -0.3383    1.7430   -1.1892 H         1 <0>         0.0835
     29 H3         -0.4903    1.9000    0.5773 H         1 <0>         0.0833
     30 H4          2.8131   -0.1831    1.1846 H         1 <0>         0.0711
     31 H5          3.2118   -1.1619   -0.2476 H         1 <0>         0.1008
     32 H6          2.6768    0.5245   -0.4430 H         1 <0>         0.0802
     33 H7         -2.5923   -2.6959    1.8563 H         1 <0>         0.1178
     34 H8         -4.0859   -4.6463    1.8967 H         1 <0>         0.1230
     35 H9         -3.9643   -6.3364    0.1166 H         1 <0>         0.1239
     36 H10        -0.8297   -4.1148   -1.7841 H         1 <0>         0.1226
     37 H11        -1.6012   -6.2455   -2.8211 H         1 <0>         0.1178
     38 H12        -3.8337   -7.5182   -1.1834 H         1 <0>         0.1014
     39 H13        -3.0689   -8.1507   -2.7691 H         1 <0>         0.1044
     40 H14        -2.9670   -1.7436   -1.8117 H         1 <0>         0.1447
     41 H15        -5.2439   -0.9550   -2.1183 H         1 <0>         0.1485
     42 H16        -2.2481    1.2642    1.1616 H         1 <0>         0.1436
     43 H17        -6.2753    3.5540    1.3949 H         1 <0>         0.1791
     44 H18        -7.7619    2.4460   -0.2297 H         1 <0>         0.1790
@<TRIPOS>BOND
     1    1    2 1
     2    1   27 1
     3    1   28 1
     4    1   29 1
     5    2    7 1
     6    2    3 1
     7    3    4 2
     8    3   17 1
     9    4    5 1
    10    4    9 1
    11    5    6 2
    12    5    7 am
    13    7    8 1
    14    8   30 1
    15    8   31 1
    16    8   32 1
    17    9   14 ar
    18    9   10 ar
    19   10   11 ar
    20   10   33 1
    21   11   12 ar
    22   11   34 1
    23   12   13 ar
    24   12   35 1
    25   13   14 ar
    26   13   15 1
    27   14   36 1
    28   15   16 2
    29   15   37 1
    30   16   38 1
    31   16   39 1
    32   17   22 ar
    33   17   18 ar
    34   18   19 ar
    35   18   40 1
    36   19   20 ar
    37   19   41 1
    38   20   26 ar
    39   20   21 ar
    40   21   22 ar
    41   21   23 ar
    42   22   42 1
    43   23   24 ar
    44   24   25 ar
    45   24   43 1
    46   25   26 ar
    47   25   44 1
@<TRIPOS>MOLECULE
CHEMBL389078
   53    57     0     0     0
SMALL
USER_CHARGES

@<TRIPOS>ATOM
      1 C1         -0.0184    1.5028    0.0103 C.3       1 <0>        -0.1074
      2 C2          0.0021   -0.0041    0.0020 C.ar      1 <0>         0.1420
      3 C3          0.0055   -0.6791   -1.2047 C.ar      1 <0>        -0.1683
      4 C4          0.0244   -2.0675   -1.2099 C.ar      1 <0>        -0.0633
      5 C5          0.0392   -2.7328    0.0024 C.ar      1 <0>        -0.1730
      6 C6          0.0347   -1.9886    1.1844 C.ar      1 <0>         0.1981
      7 N1          0.0218   -0.6596    1.1445 N.ar      1 <0>        -0.4559
      8 C7          0.0503   -2.6820    2.4864 C.2       1 <0>         0.0357
      9 C8          0.5116   -2.1797    3.6902 C.2       1 <0>         0.1018
     10 N2          0.3399   -3.1391    4.6177 N.2       1 <0>        -0.4535
     11 C9         -0.1941   -4.1920    4.0636 C.2       1 <0>         0.2102
     12 N3         -0.3969   -3.9577    2.7499 N.pl3     1 <0>        -0.5446
     13 H1         -0.7841   -4.5747    2.1092 H         1 <0>         0.4249
     14 C10        -0.5367   -5.4723    4.7810 C.3       1 <0>         0.2135
     15 N4          0.6488   -6.3310    4.8403 N.pl3     1 <0>        -0.7429
     16 C11         0.5762   -7.5800    5.4622 C.ar      1 <0>         0.2111
     17 C12        -0.6224   -8.0104    6.0197 C.ar      1 <0>        -0.1717
     18 C13        -0.6994   -9.2452    6.6356 C.ar      1 <0>        -0.0772
     19 C14         0.4132  -10.0595    6.7013 C.ar      1 <0>        -0.1434
     20 C15         1.6213   -9.6368    6.1446 C.ar      1 <0>        -0.0917
     21 C16         1.6979   -8.3927    5.5183 C.ar      1 <0>        -0.1303
     22 C17         2.8147  -10.5071    6.2141 C.2       1 <0>         0.5621
     23 O1          3.8658  -10.1370    5.7287 O.2       1 <0>        -0.5390
     24 N5          2.7369  -11.7106    6.8156 N.am      1 <0>        -0.8498
     25 C18         1.0885   -0.8340    3.9161 C.ar      1 <0>         0.0068
     26 C19         1.8613   -0.2296    2.9248 C.ar      1 <0>        -0.0522
     27 C20         2.3978    1.0236    3.1365 C.ar      1 <0>        -0.1047
     28 C21         2.1711    1.6866    4.3335 C.ar      1 <0>         0.0394
     29 C22         1.3992    1.0876    5.3278 C.ar      1 <0>         0.0247
     30 C23         0.8552   -0.1666    5.1182 C.ar      1 <0>        -0.0683
     31 O2          1.3281    1.9361    6.3950 O.3       1 <0>        -0.3087
     32 C24         2.3982    2.8808    6.2069 C.3       1 <0>         0.2133
     33 O3          2.5823    2.9098    4.7793 O.3       1 <0>        -0.3095
     34 H2          1.0042    1.8801    0.0026 H         1 <0>         0.0824
     35 H3         -0.5455    1.8639   -0.8728 H         1 <0>         0.0775
     36 H4         -0.5286    1.8543    0.9071 H         1 <0>         0.0805
     37 H5         -0.0067   -0.1311   -2.1353 H         1 <0>         0.1393
     38 H6          0.0270   -2.6159   -2.1403 H         1 <0>         0.1396
     39 H7          0.0536   -3.8122    0.0348 H         1 <0>         0.1295
     40 H8         -0.8705   -5.2435    5.7931 H         1 <0>         0.0985
     41 H9         -1.3325   -5.9881    4.2437 H         1 <0>         0.0803
     42 H10         1.4841   -6.0325    4.4478 H         1 <0>         0.4058
     43 H11        -1.4962   -7.3775    5.9718 H         1 <0>         0.1267
     44 H12        -1.6332   -9.5740    7.0673 H         1 <0>         0.1298
     45 H13         0.3489  -11.0236    7.1837 H         1 <0>         0.1235
     46 H14         2.6290   -8.0621    5.0822 H         1 <0>         0.1344
     47 H15         1.8981  -12.0059    7.2030 H         1 <0>         0.4021
     48 H16         3.5198  -12.2815    6.8612 H         1 <0>         0.4058
     49 H17         2.0399   -0.7428    1.9915 H         1 <0>         0.1289
     50 H18         2.9966    1.4897    2.3679 H         1 <0>         0.1340
     51 H19         0.2535   -0.6301    5.8860 H         1 <0>         0.1377
     52 H20         2.1096    3.8649    6.5760 H         1 <0>         0.1313
     53 H21         3.3053    2.5356    6.7030 H         1 <0>         0.0840
@<TRIPOS>BOND
     1    1    2 1
     2    1   34 1
     3    1   35 1
     4    1   36 1
     5    2    7 ar
     6    2    3 ar
     7    3    4 ar
     8    3   37 1
     9    4    5 ar
    10    4   38 1
    11    5    6 ar
    12    5   39 1
    13    6    7 ar
    14    6    8 1
    15    8   12 1
    16    8    9 2
    17    9   10 1
    18    9   25 1
    19   10   11 2
    20   11   12 1
    21   11   14 1
    22   12   13 1
    23   14   15 1
    24   14   40 1
    25   14   41 1
    26   15   16 1
    27   15   42 1
    28   16   21 ar
    29   16   17 ar
    30   17   18 ar
    31   17   43 1
    32   18   19 ar
    33   18   44 1
    34   19   20 ar
    35   19   45 1
    36   20   21 ar
    37   20   22 1
    38   21   46 1
    39   22   23 2
    40   22   24 am
    41   24   47 1
    42   24   48 1
    43   25   30 ar
    44   25   26 ar
    45   26   27 ar
    46   26   49 1
    47   27   28 ar
    48   27   50 1
    49   28   33 1
    50   28   29 ar
    51   29   30 ar
    52   29   31 1
    53   30   51 1
    54   31   32 1
    55   32   33 1
    56   32   52 1
    57   32   53 1
@<TRIPOS>MOLECULE
CHEMBL389078__1
   54    58     0     0     0
SMALL
USER_CHARGES

@<TRIPOS>ATOM
      1 C1         -0.0184    1.5028    0.0103 C.3       1 <0>        -0.1127
      2 C2          0.0021   -0.0041    0.0020 C.ar      1 <0>         0.1503
      3 C3          0.0055   -0.6791   -1.2047 C.ar      1 <0>        -0.1364
      4 C4          0.0244   -2.0675   -1.2099 C.ar      1 <0>        -0.0592
      5 C5          0.0392   -2.7328    0.0024 C.ar      1 <0>        -0.1514
      6 C6          0.0347   -1.9886    1.1844 C.ar      1 <0>         0.1525
      7 N1          0.0218   -0.6596    1.1445 N.ar      1 <0>        -0.4475
      8 C7          0.0503   -2.6820    2.4864 C.2       1 <0>         0.1269
      9 C8          0.5116   -2.1797    3.6902 C.2       1 <0>         0.1366
     10 N2          0.3399   -3.1391    4.6177 N.pl3     1 <0>        -0.4606
     11 C9         -0.1941   -4.1920    4.0636 C.cat     1 <0>         0.3212
     12 N3         -0.3969   -3.9577    2.7499 N.pl3     1 <0>        -0.4962
     13 H1         -0.7841   -4.5747    2.1092 H         1 <0>         0.4631
     14 C10        -0.5367   -5.4723    4.7810 C.3       1 <0>         0.1809
     15 N4         -1.5209   -6.2229    3.9974 N.pl3     1 <0>        -0.7591
     16 C11        -1.9945   -7.4519    4.4635 C.ar      1 <0>         0.1907
     17 C12        -1.5361   -7.9598    5.6737 C.ar      1 <0>        -0.1619
     18 C13        -2.0019   -9.1748    6.1393 C.ar      1 <0>        -0.0767
     19 C14        -2.9253   -9.8922    5.4059 C.ar      1 <0>        -0.1228
     20 C15        -3.3919   -9.3911    4.1896 C.ar      1 <0>        -0.0878
     21 C16        -2.9259   -8.1623    3.7220 C.ar      1 <0>        -0.1187
     22 C17        -4.3807  -10.1579    3.4018 C.2       1 <0>         0.5599
     23 O1         -4.7857   -9.7197    2.3428 O.2       1 <0>        -0.5366
     24 N5         -4.8330  -11.3428    3.8580 N.am      1 <0>        -0.8457
     25 C18         1.0885   -0.8340    3.9161 C.ar      1 <0>        -0.0550
     26 C19         2.0260   -0.3166    3.0225 C.ar      1 <0>        -0.0315
     27 C20         2.5624    0.9367    3.2341 C.ar      1 <0>        -0.1005
     28 C21         2.1720    1.6861    4.3339 C.ar      1 <0>         0.0771
     29 C22         1.2351    1.1743    5.2302 C.ar      1 <0>         0.0376
     30 C23         0.6909   -0.0796    5.0196 C.ar      1 <0>        -0.0745
     31 O2          1.0245    2.0965    6.2147 O.3       1 <0>        -0.3017
     32 C24         2.1404    3.0030    6.1373 C.3       1 <0>         0.2115
     33 O3          2.5469    2.9286    4.7582 O.3       1 <0>        -0.2982
     34 H2          1.0042    1.8801    0.0026 H         1 <0>         0.0884
     35 H3         -0.5455    1.8639   -0.8728 H         1 <0>         0.0857
     36 H4         -0.5286    1.8543    0.9071 H         1 <0>         0.0831
     37 H5         -0.0067   -0.1311   -2.1353 H         1 <0>         0.1515
     38 H6          0.0270   -2.6159   -2.1403 H         1 <0>         0.1520
     39 H7          0.0536   -3.8122    0.0348 H         1 <0>         0.1359
     40 H8          0.3648   -6.0727    4.9032 H         1 <0>         0.1290
     41 H9         -0.9536   -5.2393    5.7608 H         1 <0>         0.1237
     42 H10        -1.8437   -5.8667    3.1549 H         1 <0>         0.3995
     43 H11        -0.8133   -7.4032    6.2518 H         1 <0>         0.1280
     44 H12        -1.6420   -9.5645    7.0800 H         1 <0>         0.1373
     45 H13        -3.2866  -10.8415    5.7730 H         1 <0>         0.1314
     46 H14        -3.2863   -7.7676    2.7835 H         1 <0>         0.1379
     47 H15        -4.5098  -11.6925    4.7030 H         1 <0>         0.4033
     48 H16        -5.4817  -11.8458    3.3412 H         1 <0>         0.4104
     49 H17         2.3324   -0.8973    2.1651 H         1 <0>         0.1373
     50 H18         3.2888    1.3353    2.5414 H         1 <0>         0.1489
     51 H19        -0.0382   -0.4757    5.7109 H         1 <0>         0.1380
     52 H20         1.8290    4.0163    6.3906 H         1 <0>         0.1427
     53 H21         2.9470    2.6741    6.7926 H         1 <0>         0.0951
     54 H22         0.5772   -3.0599    5.5549 H         1 <0>         0.4674
@<TRIPOS>BOND
     1    1    2 1
     2    1   34 1
     3    1   35 1
     4    1   36 1
     5    2    7 ar
     6    2    3 ar
     7    3    4 ar
     8    3   37 1
     9    4    5 ar
    10    4   38 1
    11    5    6 ar
    12    5   39 1
    13    6    7 ar
    14    6    8 1
    15    8   12 1
    16    8    9 2
    17    9   10 1
    18    9   25 1
    19   10   11 2
    20   10   54 1
    21   11   12 1
    22   11   14 1
    23   12   13 1
    24   14   15 1
    25   14   40 1
    26   14   41 1
    27   15   16 1
    28   15   42 1
    29   16   21 ar
    30   16   17 ar
    31   17   18 ar
    32   17   43 1
    33   18   19 ar
    34   18   44 1
    35   19   20 ar
    36   19   45 1
    37   20   21 ar
    38   20   22 1
    39   21   46 1
    40   22   23 2
    41   22   24 am
    42   24   47 1
    43   24   48 1
    44   25   30 ar
    45   25   26 ar
    46   26   27 ar
    47   26   49 1
    48   27   28 ar
    49   27   50 1
    50   28   33 1
    51   28   29 ar
    52   29   30 ar
    53   29   31 1
    54   30   51 1
    55   31   32 1
    56   32   33 1
    57   32   52 1
    58   32   53 1
@<TRIPOS>MOLECULE
CHEMBL389078__2
   53    57     0     0     0
SMALL
USER_CHARGES

@<TRIPOS>ATOM
      1 C1         -0.0184    1.5028    0.0103 C.3       1 <0>        -0.1040
      2 C2          0.0021   -0.0041    0.0020 C.ar      1 <0>         0.1330
      3 C3          0.0056   -0.6792   -1.2044 C.ar      1 <0>        -0.1711
      4 C4          0.0249   -2.0673   -1.2086 C.ar      1 <0>        -0.0721
      5 C5          0.0401   -2.7316    0.0047 C.ar      1 <0>        -0.1472
      6 C6          0.0355   -1.9875    1.1847 C.ar      1 <0>         0.2073
      7 N1          0.0218   -0.6599    1.1447 N.ar      1 <0>        -0.4678
      8 C7          0.0515   -2.6825    2.4911 C.2       1 <0>         0.0621
      9 C8          0.5166   -2.1659    3.6874 C.2       1 <0>         0.0791
     10 N2          0.3381   -3.1526    4.6270 N.pl3     1 <0>        -0.5510
     11 C9         -0.2172   -4.2175    3.9942 C.2       1 <0>         0.1992
     12 N3         -0.3894   -3.9320    2.7345 N.2       1 <0>        -0.4432
     13 H1          0.5667   -3.0983    5.5681 H         1 <0>         0.4261
     14 C10        -0.5831   -5.5250    4.6482 C.3       1 <0>         0.2154
     15 N4         -1.9968   -5.5005    5.0316 N.pl3     1 <0>        -0.7432
     16 C11        -2.5697   -6.6093    5.6594 C.ar      1 <0>         0.2113
     17 C12        -1.7968   -7.7339    5.9255 C.ar      1 <0>        -0.1719
     18 C13        -2.3587   -8.8330    6.5467 C.ar      1 <0>        -0.0772
     19 C14        -3.6911   -8.8219    6.9072 C.ar      1 <0>        -0.1438
     20 C15        -4.4758   -7.6979    6.6445 C.ar      1 <0>        -0.0915
     21 C16        -3.9075   -6.5862    6.0222 C.ar      1 <0>        -0.1306
     22 C17        -5.9034   -7.6836    7.0292 C.2       1 <0>         0.5619
     23 O1         -6.5849   -6.7037    6.7994 O.2       1 <0>        -0.5388
     24 N5         -6.4490   -8.7570    7.6345 N.am      1 <0>        -0.8498
     25 C18         1.0900   -0.8234    3.9098 C.ar      1 <0>        -0.0048
     26 C19         2.0271   -0.3050    3.0134 C.ar      1 <0>        -0.0466
     27 C20         2.5608    0.9492    3.2228 C.ar      1 <0>        -0.0982
     28 C21         2.1706    1.6996    4.3225 C.ar      1 <0>         0.0450
     29 C22         1.2355    1.1878    5.2214 C.ar      1 <0>         0.0318
     30 C23         0.6923   -0.0665    5.0139 C.ar      1 <0>        -0.0870
     31 O2          1.0253    2.1115    6.2047 O.3       1 <0>        -0.3080
     32 C24         2.1400    3.0191    6.1240 C.3       1 <0>         0.2130
     33 O3          2.5443    2.9431    4.7443 O.3       1 <0>        -0.3065
     34 H2          1.0042    1.8801    0.0026 H         1 <0>         0.0783
     35 H3         -0.5455    1.8639   -0.8728 H         1 <0>         0.0751
     36 H4         -0.5286    1.8543    0.9071 H         1 <0>         0.0762
     37 H5         -0.0069   -0.1316   -2.1352 H         1 <0>         0.1349
     38 H6          0.0276   -2.6164   -2.1385 H         1 <0>         0.1370
     39 H7          0.0549   -3.8110    0.0380 H         1 <0>         0.1396
     40 H8         -0.4106   -6.3423    3.9480 H         1 <0>         0.0974
     41 H9          0.0317   -5.6716    5.5363 H         1 <0>         0.0801
     42 H10        -2.5351   -4.7144    4.8495 H         1 <0>         0.4057
     43 H11        -0.7538   -7.7486    5.6455 H         1 <0>         0.1267
     44 H12        -1.7534   -9.7039    6.7506 H         1 <0>         0.1297
     45 H13        -4.1265   -9.6830    7.3922 H         1 <0>         0.1234
     46 H14        -4.5087   -5.7121    5.8201 H         1 <0>         0.1342
     47 H15        -5.9051   -9.5390    7.8178 H         1 <0>         0.4020
     48 H16        -7.3855   -8.7477    7.8868 H         1 <0>         0.4058
     49 H17         2.3339   -0.8863    2.1566 H         1 <0>         0.1333
     50 H18         3.2853    1.3485    2.5285 H         1 <0>         0.1389
     51 H19        -0.0354   -0.4621    5.7070 H         1 <0>         0.1311
     52 H20         1.8277    4.0325    6.3763 H         1 <0>         0.1337
     53 H21         2.9481    2.6923    6.7784 H         1 <0>         0.0858
@<TRIPOS>BOND
     1    1    2 1
     2    1   34 1
     3    1   35 1
     4    1   36 1
     5    2    7 ar
     6    2    3 ar
     7    3    4 ar
     8    3   37 1
     9    4    5 ar
    10    4   38 1
    11    5    6 ar
    12    5   39 1
    13    6    7 ar
    14    6    8 1
    15    8   12 1
    16    8    9 2
    17    9   25 1
    18    9   10 1
    19   10   11 1
    20   10   13 1
    21   11   14 1
    22   11   12 2
    23   14   15 1
    24   14   40 1
    25   14   41 1
    26   15   16 1
    27   15   42 1
    28   16   21 ar
    29   16   17 ar
    30   17   18 ar
    31   17   43 1
    32   18   19 ar
    33   18   44 1
    34   19   20 ar
    35   19   45 1
    36   20   21 ar
    37   20   22 1
    38   21   46 1
    39   22   23 2
    40   22   24 am
    41   24   47 1
    42   24   48 1
    43   25   30 ar
    44   25   26 ar
    45   26   27 ar
    46   26   49 1
    47   27   28 ar
    48   27   50 1
    49   28   33 1
    50   28   29 ar
    51   29   30 ar
    52   29   31 1
    53   30   51 1
    54   31   32 1
    55   32   33 1
    56   32   52 1
    57   32   53 1
@<TRIPOS>MOLECULE
CHEMBL205570
   53    57     0     0     0
SMALL
USER_CHARGES

@<TRIPOS>ATOM
      1 C1         -0.0167    1.3795    0.0096 C.ar      1 <0>        -0.0734
      2 C2          1.1938    2.0587    0.0017 C.ar      1 <0>        -0.1591
      3 C3          2.3745    1.3401   -0.0134 C.ar      1 <0>         0.1022
      4 N1          2.3646    0.0224   -0.0204 N.ar      1 <0>        -0.4606
      5 C4          1.2295   -0.6646   -0.0132 C.ar      1 <0>         0.1855
      6 C5          0.0021   -0.0041    0.0020 C.ar      1 <0>        -0.1366
      7 C6          1.2668   -2.1464   -0.0221 C.2       1 <0>         0.1440
      8 C7          2.3238   -2.9528   -0.5161 C.2       1 <0>        -0.1892
      9 C8          1.9627   -4.2551   -0.3374 C.2       1 <0>         0.0837
     10 N2          0.7439   -4.2707    0.2383 N.pl3     1 <0>        -0.4581
     11 H1          0.2416   -5.0641    0.4810 H         1 <0>         0.4495
     12 N3          0.3283   -2.9479    0.4320 N.2       1 <0>        -0.2646
     13 C9          3.5896   -2.4681   -1.1173 C.ar      1 <0>         0.0676
     14 C10         3.5795   -1.5051   -2.1325 C.ar      1 <0>        -0.1238
     15 C11         4.7772   -1.0783   -2.6680 C.ar      1 <0>         0.1092
     16 N4          5.9251   -1.5635   -2.2377 N.ar      1 <0>        -0.4767
     17 C12         5.9844   -2.4778   -1.2774 C.ar      1 <0>         0.1403
     18 C13         4.8226   -2.9565   -0.6813 C.ar      1 <0>        -0.1466
     19 C14         7.3034   -2.9901   -0.8315 C.ar      1 <0>         0.0054
     20 C15         7.3762   -3.9543    0.1720 C.ar      1 <0>        -0.1043
     21 C16         8.6059   -4.4277    0.5826 C.ar      1 <0>        -0.0927
     22 C17         9.7647   -3.9465    0.0003 C.ar      1 <0>        -0.1618
     23 C18         9.6983   -2.9891   -0.9958 C.ar      1 <0>        -0.0951
     24 C19         8.4737   -2.5131   -1.4185 C.ar      1 <0>        -0.0822
     25 C20        11.1045   -4.4670    0.4533 C.3       1 <0>         0.0494
     26 N5         11.4746   -5.6360   -0.3556 N.4       1 <0>        -0.3930
     27 C21        11.7608   -5.2220   -1.7531 C.3       1 <0>        -0.0059
     28 C22        12.6426   -6.3767   -2.2914 C.3       1 <0>        -0.1455
     29 C23        13.5130   -6.7460   -1.0683 C.3       1 <0>        -0.1450
     30 C24        12.7290   -6.2318    0.1533 C.3       1 <0>        -0.0092
     31 H2         -0.9522    1.9188    0.0259 H         1 <0>         0.1418
     32 H3          1.2130    3.1385    0.0070 H         1 <0>         0.1406
     33 H4          3.3180    1.8657   -0.0200 H         1 <0>         0.1601
     34 H5         -0.9212   -0.5643    0.0082 H         1 <0>         0.1410
     35 H6          2.5490   -5.1206   -0.6087 H         1 <0>         0.1857
     36 H7          2.6450   -1.1009   -2.4929 H         1 <0>         0.1301
     37 H8          4.7743   -0.3354   -3.4519 H         1 <0>         0.1603
     38 H9          4.8732   -3.6971    0.1031 H         1 <0>         0.1333
     39 H10         6.4721   -4.3302    0.6278 H         1 <0>         0.1376
     40 H11         8.6635   -5.1750    1.3602 H         1 <0>         0.1328
     41 H12        10.6062   -2.6166   -1.4468 H         1 <0>         0.1316
     42 H13         8.4228   -1.7691   -2.1997 H         1 <0>         0.1474
     43 H14        11.8569   -3.6878    0.3315 H         1 <0>         0.1345
     44 H15        11.0464   -4.7551    1.5029 H         1 <0>         0.1350
     45 H16        10.8379   -5.1428   -2.3276 H         1 <0>         0.1340
     46 H17        12.3082   -4.2796   -1.7707 H         1 <0>         0.1326
     47 H18        12.0265   -7.2227   -2.5960 H         1 <0>         0.0968
     48 H19        13.2647   -6.0338   -3.1181 H         1 <0>         0.1159
     49 H20        13.6414   -7.8267   -1.0079 H         1 <0>         0.1041
     50 H21        14.4826   -6.2519   -1.1309 H         1 <0>         0.1034
     51 H22        13.3130   -5.4758    0.6780 H         1 <0>         0.1308
     52 H23        12.5011   -7.0604    0.8239 H         1 <0>         0.1313
     53 H24        10.7329   -6.3198   -0.3393 H         1 <0>         0.4257
@<TRIPOS>BOND
     1    1    6 ar
     2    1    2 ar
     3    1   31 1
     4    2    3 ar
     5    2   32 1
     6    3    4 ar
     7    3   33 1
     8    4    5 ar
     9    5    6 ar
    10    5    7 1
    11    6   34 1
    12    7   12 2
    13    7    8 1
    14    8    9 2
    15    8   13 1
    16    9   10 1
    17    9   35 1
    18   10   11 1
    19   10   12 1
    20   13   18 ar
    21   13   14 ar
    22   14   15 ar
    23   14   36 1
    24   15   16 ar
    25   15   37 1
    26   16   17 ar
    27   17   18 ar
    28   17   19 1
    29   18   38 1
    30   19   24 ar
    31   19   20 ar
    32   20   21 ar
    33   20   39 1
    34   21   22 ar
    35   21   40 1
    36   22   23 ar
    37   22   25 1
    38   23   24 ar
    39   23   41 1
    40   24   42 1
    41   25   26 1
    42   25   43 1
    43   25   44 1
    44   26   30 1
    45   26   27 1
    46   26   53 1
    47   27   28 1
    48   27   45 1
    49   27   46 1
    50   28   29 1
    51   28   47 1
    52   28   48 1
    53   29   30 1
    54   29   49 1
    55   29   50 1
    56   30   51 1
    57   30   52 1
@<TRIPOS>MOLECULE
CHEMBL205570__1
   53    57     0     0     0
SMALL
USER_CHARGES

@<TRIPOS>ATOM
      1 C1         -0.0167    1.3791    0.0096 C.ar      1 <0>        -0.0666
      2 C2          1.1939    2.0588    0.0017 C.ar      1 <0>        -0.1563
      3 C3          2.3757    1.3409   -0.0134 C.ar      1 <0>         0.1086
      4 N1          2.3675    0.0237   -0.0209 N.ar      1 <0>        -0.4539
      5 C4          1.2315   -0.6652   -0.0137 C.ar      1 <0>         0.1682
      6 C5          0.0021   -0.0041    0.0020 C.ar      1 <0>        -0.1544
      7 C6          1.2697   -2.1418   -0.0230 C.2       1 <0>         0.1545
      8 C7          2.2978   -2.9388   -0.5099 C.2       1 <0>        -0.1776
      9 C8          1.9145   -4.2780   -0.3185 C.2       1 <0>         0.0693
     10 N2          0.7361   -4.2963    0.2452 N.2       1 <0>        -0.2669
     11 H1         -0.5337   -2.7121    0.8551 H         1 <0>         0.4456
     12 N3          0.3057   -2.9803    0.4497 N.pl3     1 <0>        -0.4573
     13 C9          3.5636   -2.4655   -1.1182 C.ar      1 <0>         0.0676
     14 C10         3.5560   -1.5051   -2.1365 C.ar      1 <0>        -0.1275
     15 C11         4.7544   -1.0889   -2.6786 C.ar      1 <0>         0.1090
     16 N4          5.9007   -1.5815   -2.2522 N.ar      1 <0>        -0.4767
     17 C12         5.9578   -2.4934   -1.2895 C.ar      1 <0>         0.1414
     18 C13         4.7954   -2.9618   -0.6865 C.ar      1 <0>        -0.1433
     19 C14         7.2751   -3.0141   -0.8484 C.ar      1 <0>         0.0047
     20 C15         7.3457   -3.9759    0.1576 C.ar      1 <0>        -0.1035
     21 C16         8.5739   -4.4567    0.5641 C.ar      1 <0>        -0.0924
     22 C17         9.7334   -3.9854   -0.0248 C.ar      1 <0>        -0.1616
     23 C18         9.6692   -3.0308   -1.0238 C.ar      1 <0>        -0.0955
     24 C19         8.4461   -2.5475   -1.4425 C.ar      1 <0>        -0.0822
     25 C20        11.0715   -4.5135    0.4240 C.3       1 <0>         0.0495
     26 N5         11.4301   -5.6877   -0.3827 N.4       1 <0>        -0.3931
     27 C21        11.7130   -5.2803   -1.7827 C.3       1 <0>        -0.0059
     28 C22        12.5844   -6.4428   -2.3210 C.3       1 <0>        -0.1456
     29 C23        13.4576   -6.8141   -1.1005 C.3       1 <0>        -0.1450
     30 C24        12.6825   -6.2905    0.1228 C.3       1 <0>        -0.0092
     31 H2         -0.9523    1.9183    0.0259 H         1 <0>         0.1443
     32 H3          1.2124    3.1386    0.0070 H         1 <0>         0.1436
     33 H4          3.3185    1.8676   -0.0196 H         1 <0>         0.1635
     34 H5         -0.9212   -0.5644    0.0078 H         1 <0>         0.1350
     35 H6          2.4963   -5.1458   -0.5921 H         1 <0>         0.1919
     36 H7          2.6230   -1.0950   -2.4938 H         1 <0>         0.1284
     37 H8          4.7535   -0.3484   -3.4647 H         1 <0>         0.1598
     38 H9          4.8444   -3.7002    0.1001 H         1 <0>         0.1353
     39 H10         6.4410   -4.3440    0.6186 H         1 <0>         0.1387
     40 H11         8.6297   -5.2020    1.3436 H         1 <0>         0.1332
     41 H12        10.5777   -2.6661   -1.4800 H         1 <0>         0.1314
     42 H13         8.3969   -1.8057   -2.2259 H         1 <0>         0.1471
     43 H14        11.8288   -3.7400    0.2963 H         1 <0>         0.1343
     44 H15        11.0161   -4.7978    1.4748 H         1 <0>         0.1350
     45 H16        10.7881   -5.1966   -2.3534 H         1 <0>         0.1341
     46 H17        12.2668   -4.3417   -1.8058 H         1 <0>         0.1324
     47 H18        11.9612   -7.2855   -2.6201 H         1 <0>         0.0970
     48 H19        13.2053   -6.1069   -3.1516 H         1 <0>         0.1158
     49 H20        13.5789   -7.8955   -1.0371 H         1 <0>         0.1042
     50 H21        14.4303   -6.3269   -1.1690 H         1 <0>         0.1032
     51 H22        13.2741   -5.5368    0.6424 H         1 <0>         0.1306
     52 H23        12.4519   -7.1153    0.7971 H         1 <0>         0.1314
     53 H24        10.6838   -6.3664   -0.3609 H         1 <0>         0.4260
@<TRIPOS>BOND
     1    1    6 ar
     2    1    2 ar
     3    1   31 1
     4    2    3 ar
     5    2   32 1
     6    3    4 ar
     7    3   33 1
     8    4    5 ar
     9    5    6 ar
    10    5    7 1
    11    6   34 1
    12    7    8 2
    13    7   12 1
    14    8    9 1
    15    8   13 1
    16    9   10 2
    17    9   35 1
    18   10   12 1
    19   11   12 1
    20   13   18 ar
    21   13   14 ar
    22   14   15 ar
    23   14   36 1
    24   15   16 ar
    25   15   37 1
    26   16   17 ar
    27   17   18 ar
    28   17   19 1
    29   18   38 1
    30   19   24 ar
    31   19   20 ar
    32   20   21 ar
    33   20   39 1
    34   21   22 ar
    35   21   40 1
    36   22   23 ar
    37   22   25 1
    38   23   24 ar
    39   23   41 1
    40   24   42 1
    41   25   26 1
    42   25   43 1
    43   25   44 1
    44   26   30 1
    45   26   27 1
    46   26   53 1
    47   27   28 1
    48   27   45 1
    49   27   46 1
    50   28   29 1
    51   28   47 1
    52   28   48 1
    53   29   30 1
    54   29   49 1
    55   29   50 1
    56   30   51 1
    57   30   52 1
@<TRIPOS>MOLECULE
CHEMBL1164022
   53    57     0     0     0
SMALL
USER_CHARGES

@<TRIPOS>ATOM
      1 C1         -0.0184    1.5028    0.0103 C.3       1 <0>        -0.1035
      2 C2          0.0021   -0.0041    0.0020 C.ar      1 <0>         0.1337
      3 C3          0.0056   -0.6794   -1.2046 C.ar      1 <0>        -0.1654
      4 C4          0.0249   -2.0670   -1.2080 C.ar      1 <0>        -0.0723
      5 C5          0.0401   -2.7306    0.0065 C.ar      1 <0>        -0.1472
      6 C6          0.0355   -1.9865    1.1848 C.ar      1 <0>         0.1995
      7 N1          0.0218   -0.6599    1.1444 N.ar      1 <0>        -0.4551
      8 C7          0.0510   -2.6820    2.4936 C.2       1 <0>         0.1330
      9 C8          0.5286   -2.1485    3.7176 C.2       1 <0>        -0.1722
     10 C9          0.3643   -3.1059    4.6734 C.2       1 <0>         0.0688
     11 N2         -0.1878   -4.1869    4.0850 N.pl3     1 <0>        -0.3579
     12 N3         -0.3809   -3.9021    2.7279 N.2       1 <0>        -0.2606
     13 C10        -0.5317   -5.4441    4.7538 C.3       1 <0>         0.1759
     14 C11        -1.9848   -5.7613    4.5108 C.ar      1 <0>        -0.1215
     15 C12        -2.9492   -5.2936    5.3861 C.ar      1 <0>        -0.0700
     16 C13        -4.2853   -5.5799    5.1700 C.ar      1 <0>        -0.1291
     17 C14        -4.6646   -6.3348    4.0791 C.ar      1 <0>        -0.0741
     18 C15        -3.6970   -6.8095    3.1926 C.ar      1 <0>        -0.1418
     19 C16        -2.3510   -6.5122    3.4133 C.ar      1 <0>        -0.0209
     20 C17        -4.0962   -7.6193    2.0218 C.2       1 <0>         0.5633
     21 O1         -3.2513   -8.0315    1.2513 O.2       1 <0>        -0.5350
     22 N4         -5.3970   -7.9007    1.8090 N.am      1 <0>        -0.8508
     23 C18         1.1026   -0.7959    3.9203 C.ar      1 <0>         0.0260
     24 C19         2.1155   -0.3327    3.0649 C.ar      1 <0>        -0.0600
     25 C20         2.6575    0.9014    3.2284 C.ar      1 <0>        -0.0943
     26 C21         2.2067    1.7375    4.2666 C.ar      1 <0>         0.1266
     27 C22         1.1845    1.2782    5.1350 C.ar      1 <0>        -0.0952
     28 C23         0.6329    0.0025    4.9467 C.ar      1 <0>        -0.0964
     29 C24         0.7389    2.1210    6.1713 C.ar      1 <0>        -0.0595
     30 C25         1.3165    3.3528    6.2938 C.ar      1 <0>        -0.1781
     31 C26         2.3168    3.7423    5.4062 C.ar      1 <0>         0.1254
     32 N5          2.7289    2.9552    4.4421 N.ar      1 <0>        -0.4744
     33 H1          1.0042    1.8801    0.0026 H         1 <0>         0.0798
     34 H2         -0.5455    1.8639   -0.8728 H         1 <0>         0.0752
     35 H3         -0.5286    1.8543    0.9071 H         1 <0>         0.0762
     36 H4         -0.0069   -0.1322   -2.1356 H         1 <0>         0.1367
     37 H5          0.0277   -2.6167   -2.1376 H         1 <0>         0.1385
     38 H6          0.0549   -3.8100    0.0406 H         1 <0>         0.1387
     39 H7          0.6292   -3.0153    5.7164 H         1 <0>         0.1813
     40 H8          0.0872   -6.2484    4.3560 H         1 <0>         0.1013
     41 H9         -0.3555   -5.3459    5.8250 H         1 <0>         0.1129
     42 H10        -2.6575   -4.7029    6.2418 H         1 <0>         0.1288
     43 H11        -5.0331   -5.2119    5.8569 H         1 <0>         0.1335
     44 H12        -5.7080   -6.5582    3.9120 H         1 <0>         0.1288
     45 H13        -1.5978   -6.8729    2.7285 H         1 <0>         0.1398
     46 H14        -6.0713   -7.5718    2.4239 H         1 <0>         0.4008
     47 H15        -5.6589   -8.4320    1.0409 H         1 <0>         0.4072
     48 H16         2.4686   -0.9675    2.2656 H         1 <0>         0.1181
     49 H17         3.4357    1.2415    2.5613 H         1 <0>         0.1314
     50 H18        -0.1493   -0.3547    5.6002 H         1 <0>         0.1261
     51 H19        -0.0382    1.8024    6.8503 H         1 <0>         0.1357
     52 H20         0.9977    4.0240    7.0776 H         1 <0>         0.1355
     53 H21         2.7643    4.7192    5.5147 H         1 <0>         0.1569
@<TRIPOS>BOND
     1    1    2 1
     2    1   33 1
     3    1   34 1
     4    1   35 1
     5    2    7 ar
     6    2    3 ar
     7    3    4 ar
     8    3   36 1
     9    4    5 ar
    10    4   37 1
    11    5    6 ar
    12    5   38 1
    13    6    7 ar
    14    6    8 1
    15    8   12 2
    16    8    9 1
    17    9   10 2
    18    9   23 1
    19   10   11 1
    20   10   39 1
    21   11   12 1
    22   11   13 1
    23   13   14 1
    24   13   40 1
    25   13   41 1
    26   14   19 ar
    27   14   15 ar
    28   15   16 ar
    29   15   42 1
    30   16   17 ar
    31   16   43 1
    32   17   18 ar
    33   17   44 1
    34   18   19 ar
    35   18   20 1
    36   19   45 1
    37   20   21 2
    38   20   22 am
    39   22   46 1
    40   22   47 1
    41   23   28 ar
    42   23   24 ar
    43   24   25 ar
    44   24   48 1
    45   25   26 ar
    46   25   49 1
    47   26   32 ar
    48   26   27 ar
    49   27   28 ar
    50   27   29 ar
    51   28   50 1
    52   29   30 ar
    53   29   51 1
    54   30   31 ar
    55   30   52 1
    56   31   32 ar
    57   31   53 1
@<TRIPOS>MOLECULE
CHEMBL387748
   51    55     0     0     0
SMALL
USER_CHARGES

@<TRIPOS>ATOM
      1 C1         -0.0184    1.5028    0.0103 C.3       1 <0>        -0.1077
      2 C2          0.0021   -0.0041    0.0020 C.ar      1 <0>         0.1426
      3 C3          0.0055   -0.6792   -1.2049 C.ar      1 <0>        -0.1664
      4 C4          0.0244   -2.0675   -1.2099 C.ar      1 <0>        -0.0628
      5 C5          0.0392   -2.7326    0.0026 C.ar      1 <0>        -0.1714
      6 C6          0.0347   -1.9884    1.1844 C.ar      1 <0>         0.1954
      7 N1          0.0218   -0.6595    1.1444 N.ar      1 <0>        -0.4583
      8 C7          0.0503   -2.6818    2.4867 C.2       1 <0>         0.0422
      9 C8          0.5118   -2.1790    3.6909 C.2       1 <0>         0.0905
     10 N2          0.3402   -3.1390    4.6185 N.2       1 <0>        -0.4503
     11 C9         -0.1935   -4.1914    4.0638 C.2       1 <0>         0.2103
     12 N3         -0.3965   -3.9564    2.7500 N.pl3     1 <0>        -0.5438
     13 H1         -0.7843   -4.5729    2.1093 H         1 <0>         0.4258
     14 C10        -0.5363   -5.4719    4.7806 C.3       1 <0>         0.2127
     15 N4          0.6491   -6.3307    4.8400 N.pl3     1 <0>        -0.7428
     16 C11         0.5763   -7.5799    5.4614 C.ar      1 <0>         0.2169
     17 C12        -0.6226   -8.0104    6.0184 C.ar      1 <0>        -0.1684
     18 C13        -0.7000   -9.2452    6.6343 C.ar      1 <0>        -0.0697
     19 C14         0.4122  -10.0596    6.7007 C.ar      1 <0>        -0.1260
     20 C15         1.6212   -9.6369    6.1444 C.ar      1 <0>         0.0205
     21 C16         1.6979   -8.3925    5.5176 C.ar      1 <0>        -0.1451
     22 C17         2.7770  -10.4797    6.2123 C.1       1 <0>         0.2518
     23 N5          3.6938  -11.1483    6.2661 N.1       1 <0>        -0.4128
     24 C18         1.0884   -0.8341    3.9167 C.ar      1 <0>         0.0239
     25 C19         1.8665   -0.2314    2.9127 C.ar      1 <0>        -0.0428
     26 C20         2.4058    1.0005    3.0958 C.ar      1 <0>        -0.0919
     27 C21         2.1896    1.6922    4.3024 C.ar      1 <0>         0.0864
     28 C22         1.4061    1.0941    5.3228 C.ar      1 <0>         0.0772
     29 C23         0.8526   -0.1782    5.1116 C.ar      1 <0>        -0.0539
     30 N6          1.2002    1.7526    6.4695 N.ar      1 <0>        -0.4220
     31 C24         1.7249    2.9451    6.6388 C.ar      1 <0>         0.0715
     32 C25         2.4957    3.5333    5.6346 C.ar      1 <0>         0.0747
     33 N7          2.7125    2.9066    4.5003 N.ar      1 <0>        -0.4275
     34 H2          1.0042    1.8801    0.0026 H         1 <0>         0.0832
     35 H3         -0.5455    1.8639   -0.8728 H         1 <0>         0.0784
     36 H4         -0.5286    1.8543    0.9071 H         1 <0>         0.0793
     37 H5         -0.0067   -0.1313   -2.1355 H         1 <0>         0.1402
     38 H6          0.0270   -2.6159   -2.1403 H         1 <0>         0.1405
     39 H7          0.0536   -3.8121    0.0352 H         1 <0>         0.1302
     40 H8         -0.8705   -5.2435    5.7927 H         1 <0>         0.1005
     41 H9         -1.3320   -5.9875    4.2429 H         1 <0>         0.0822
     42 H10         1.4845   -6.0321    4.4479 H         1 <0>         0.4056
     43 H11        -1.4964   -7.3775    5.9700 H         1 <0>         0.1293
     44 H12        -1.6341   -9.5738    7.0655 H         1 <0>         0.1344
     45 H13         0.3476  -11.0237    7.1832 H         1 <0>         0.1304
     46 H14         2.6289   -8.0620    5.0812 H         1 <0>         0.1302
     47 H15         2.0375   -0.7555    1.9840 H         1 <0>         0.1264
     48 H16         3.0015    1.4502    2.3153 H         1 <0>         0.1380
     49 H17         0.2506   -0.6436    5.8780 H         1 <0>         0.1436
     50 H18         1.5579    3.4760    7.5643 H         1 <0>         0.1746
     51 H19         2.9187    4.5145    5.7918 H         1 <0>         0.1742
@<TRIPOS>BOND
     1    1    2 1
     2    1   34 1
     3    1   35 1
     4    1   36 1
     5    2    7 ar
     6    2    3 ar
     7    3    4 ar
     8    3   37 1
     9    4    5 ar
    10    4   38 1
    11    5    6 ar
    12    5   39 1
    13    6    7 ar
    14    6    8 1
    15    8   12 1
    16    8    9 2
    17    9   10 1
    18    9   24 1
    19   10   11 2
    20   11   12 1
    21   11   14 1
    22   12   13 1
    23   14   15 1
    24   14   40 1
    25   14   41 1
    26   15   16 1
    27   15   42 1
    28   16   21 ar
    29   16   17 ar
    30   17   18 ar
    31   17   43 1
    32   18   19 ar
    33   18   44 1
    34   19   20 ar
    35   19   45 1
    36   20   21 ar
    37   20   22 1
    38   21   46 1
    39   22   23 3
    40   24   29 ar
    41   24   25 ar
    42   25   26 ar
    43   25   47 1
    44   26   27 ar
    45   26   48 1
    46   27   33 ar
    47   27   28 ar
    48   28   29 ar
    49   28   30 ar
    50   29   49 1
    51   30   31 ar
    52   31   32 ar
    53   31   50 1
    54   32   33 ar
    55   32   51 1
@<TRIPOS>MOLECULE
CHEMBL387748__1
   51    55     0     0     0
SMALL
USER_CHARGES

@<TRIPOS>ATOM
      1 C1         -0.0184    1.5028    0.0103 C.3       1 <0>        -0.1041
      2 C2          0.0021   -0.0041    0.0020 C.ar      1 <0>         0.1334
      3 C3          0.0055   -0.6793   -1.2045 C.ar      1 <0>        -0.1693
      4 C4          0.0244   -2.0673   -1.2086 C.ar      1 <0>        -0.0715
      5 C5          0.0392   -2.7315    0.0050 C.ar      1 <0>        -0.1454
      6 C6          0.0346   -1.9873    1.1847 C.ar      1 <0>         0.2047
      7 N1          0.0218   -0.6598    1.1445 N.ar      1 <0>        -0.4700
      8 C7          0.0498   -2.6823    2.4914 C.2       1 <0>         0.0698
      9 C8          0.5150   -2.1658    3.6884 C.2       1 <0>         0.0653
     10 N2          0.3352   -3.1530    4.6280 N.pl3     1 <0>        -0.5488
     11 C9         -0.2202   -4.2165    3.9950 C.2       1 <0>         0.2027
     12 N3         -0.3917   -3.9307    2.7348 N.2       1 <0>        -0.4437
     13 H1          0.5634   -3.0992    5.5692 H         1 <0>         0.4271
     14 C10        -0.5873   -5.5238    4.6486 C.3       1 <0>         0.2141
     15 N4         -2.0012   -5.4983    5.0313 N.pl3     1 <0>        -0.7430
     16 C11        -2.5752   -6.6069    5.6586 C.ar      1 <0>         0.2170
     17 C12        -1.8031   -7.7320    5.9248 C.ar      1 <0>        -0.1686
     18 C13        -2.3660   -8.8313    6.5451 C.ar      1 <0>        -0.0698
     19 C14        -3.6985   -8.8199    6.9046 C.ar      1 <0>        -0.1263
     20 C15        -4.4828   -7.6949    6.6419 C.ar      1 <0>         0.0207
     21 C16        -3.9131   -6.5828    6.0207 C.ar      1 <0>        -0.1452
     22 C17        -5.8657   -7.6804    7.0134 C.1       1 <0>         0.2518
     23 N5         -6.9627   -7.6690    7.3081 N.1       1 <0>        -0.4128
     24 C18         1.0893   -0.8247    3.9110 C.ar      1 <0>         0.0197
     25 C19         2.0344   -0.3098    3.0037 C.ar      1 <0>        -0.0451
     26 C20         2.5760    0.9202    3.1875 C.ar      1 <0>        -0.0806
     27 C21         2.1952    1.7005    4.2957 C.ar      1 <0>         0.0879
     28 C22         1.2431    1.1932    5.2174 C.ar      1 <0>         0.0805
     29 C23         0.6900   -0.0792    5.0085 C.ar      1 <0>        -0.0730
     30 N6          0.8815    1.9361    6.2704 N.ar      1 <0>        -0.4249
     31 C24         1.4112    3.1265    6.4400 C.ar      1 <0>         0.0761
     32 C25         2.3474    3.6253    5.5329 C.ar      1 <0>         0.0780
     33 N7          2.7187    2.9148    4.4917 N.ar      1 <0>        -0.4247
     34 H2          1.0042    1.8801    0.0026 H         1 <0>         0.0789
     35 H3         -0.5455    1.8639   -0.8728 H         1 <0>         0.0760
     36 H4         -0.5286    1.8543    0.9071 H         1 <0>         0.0747
     37 H5         -0.0067   -0.1318   -2.1354 H         1 <0>         0.1358
     38 H6          0.0271   -2.6165   -2.1385 H         1 <0>         0.1380
     39 H7          0.0536   -3.8109    0.0384 H         1 <0>         0.1405
     40 H8         -0.4151   -6.3411    3.9483 H         1 <0>         0.0995
     41 H9          0.0269   -5.6710    5.5369 H         1 <0>         0.0822
     42 H10        -2.5389   -4.7118    4.8491 H         1 <0>         0.4057
     43 H11        -0.7599   -7.7473    5.6456 H         1 <0>         0.1292
     44 H12        -1.7612   -9.7026    6.7489 H         1 <0>         0.1343
     45 H13        -4.1346   -9.6811    7.3889 H         1 <0>         0.1303
     46 H14        -4.5133   -5.7079    5.8191 H         1 <0>         0.1301
     47 H15         2.3322   -0.9017    2.1508 H         1 <0>         0.1308
     48 H16         3.3005    1.3013    2.4831 H         1 <0>         0.1425
     49 H17        -0.0386   -0.4760    5.6998 H         1 <0>         0.1364
     50 H18         1.1188    3.7253    7.2899 H         1 <0>         0.1765
     51 H19         2.7714    4.6063    5.6885 H         1 <0>         0.1766
@<TRIPOS>BOND
     1    1    2 1
     2    1   34 1
     3    1   35 1
     4    1   36 1
     5    2    7 ar
     6    2    3 ar
     7    3    4 ar
     8    3   37 1
     9    4    5 ar
    10    4   38 1
    11    5    6 ar
    12    5   39 1
    13    6    7 ar
    14    6    8 1
    15    8   12 1
    16    8    9 2
    17    9   24 1
    18    9   10 1
    19   10   11 1
    20   10   13 1
    21   11   14 1
    22   11   12 2
    23   14   15 1
    24   14   40 1
    25   14   41 1
    26   15   16 1
    27   15   42 1
    28   16   21 ar
    29   16   17 ar
    30   17   18 ar
    31   17   43 1
    32   18   19 ar
    33   18   44 1
    34   19   20 ar
    35   19   45 1
    36   20   21 ar
    37   20   22 1
    38   21   46 1
    39   22   23 3
    40   24   29 ar
    41   24   25 ar
    42   25   26 ar
    43   25   47 1
    44   26   27 ar
    45   26   48 1
    46   27   33 ar
    47   27   28 ar
    48   28   29 ar
    49   28   30 ar
    50   29   49 1
    51   30   31 ar
    52   31   32 ar
    53   31   50 1
    54   32   33 ar
    55   32   51 1
@<TRIPOS>MOLECULE
CHEMBL585103
   55    59     0     0     0
SMALL
USER_CHARGES

@<TRIPOS>ATOM
      1 C1         -0.0184    1.5028    0.0103 C.3       1 <0>        -0.1030
      2 C2          0.0021   -0.0041    0.0020 C.ar      1 <0>         0.1316
      3 C3          0.0055   -0.6791   -1.2044 C.ar      1 <0>        -0.1723
      4 C4          0.0244   -2.0676   -1.2092 C.ar      1 <0>        -0.0721
      5 C5          0.0392   -2.7324    0.0034 C.ar      1 <0>        -0.1485
      6 C6          0.0347   -1.9883    1.1846 C.ar      1 <0>         0.2110
      7 N1          0.0218   -0.6598    1.1447 N.ar      1 <0>        -0.4675
      8 C7          0.0498   -2.6828    2.4891 C.2       1 <0>         0.0588
      9 C8          0.5171   -2.1648    3.6924 C.2       1 <0>         0.0744
     10 N2          0.3354   -3.1569    4.6310 N.pl3     1 <0>        -0.5506
     11 C9         -0.2210   -4.2196    3.9920 C.2       1 <0>         0.1946
     12 N3         -0.3917   -3.9315    2.7327 N.2       1 <0>        -0.4438
     13 C10        -0.5897   -5.5284    4.6416 C.3       1 <0>         0.2111
     14 N4         -2.0040   -5.5030    5.0227 N.pl3     1 <0>        -0.7345
     15 C11        -2.5767   -6.6076    5.6434 C.ar      1 <0>         0.2467
     16 C12        -1.8033   -7.7348    5.9072 C.ar      1 <0>        -0.2087
     17 C13        -2.3672   -8.8296    6.5213 C.ar      1 <0>        -0.0052
     18 C14        -3.7181   -8.8091    6.8805 C.ar      1 <0>        -0.2034
     19 C15        -4.4920   -7.6757    6.6143 C.ar      1 <0>        -0.0335
     20 C16        -3.9209   -6.5820    6.0050 C.ar      1 <0>        -0.2020
     21 C17        -4.3258   -9.9812    7.5386 C.2       1 <0>         0.5677
     22 O1         -3.6515  -10.9665    7.7692 O.2       1 <0>        -0.5482
     23 N5         -5.6283   -9.9599    7.8843 N.am      1 <0>        -0.8552
     24 C18         1.0858   -0.8371    3.9159 C.2       1 <0>        -0.0443
     25 C19         2.3395   -0.5803    3.4871 C.2       1 <0>        -0.0703
     26 C20         2.9348    0.6921    3.7197 C.2       1 <0>        -0.1181
     27 C21         2.3579    1.4893    4.6202 C.2       1 <0>         0.0205
     28 C22         1.1661    1.0842    5.4782 C.3       1 <0>         0.0845
     29 C23         0.2529    0.2081    4.6133 C.3       1 <0>        -0.0783
     30 O2          0.5217    2.3289    5.7968 O.3       1 <0>        -0.3721
     31 C24         1.3359    3.3556    5.1933 C.3       1 <0>         0.2033
     32 O3          2.6403    2.7588    5.0019 O.3       1 <0>        -0.3081
     33 H1          1.0042    1.8801    0.0026 H         1 <0>         0.0778
     34 H2         -0.5455    1.8639   -0.8728 H         1 <0>         0.0753
     35 H3         -0.5286    1.8543    0.9071 H         1 <0>         0.0748
     36 H4         -0.0067   -0.1313   -2.1351 H         1 <0>         0.1345
     37 H5          0.0270   -2.6163   -2.1394 H         1 <0>         0.1368
     38 H6          0.0536   -3.8118    0.0361 H         1 <0>         0.1389
     39 H7         -0.4173   -6.3439    3.9393 H         1 <0>         0.0997
     40 H8          0.0234   -5.6784    5.5302 H         1 <0>         0.0828
     41 H9         -2.5410   -4.7156    4.8421 H         1 <0>         0.4058
     42 H10        -0.7599   -7.7501    5.6291 H         1 <0>         0.1291
     43 H11        -1.7668   -9.7038    6.7253 H         1 <0>         0.1362
     44 H12        -5.5360   -7.6570    6.8903 H         1 <0>         0.1255
     45 H13        -4.5171   -5.7043    5.8034 H         1 <0>         0.1269
     46 H14        -6.1661   -9.1739    7.7003 H         1 <0>         0.3994
     47 H15        -6.0279  -10.7306    8.3170 H         1 <0>         0.4040
     48 H16         2.8950   -1.3450    2.9645 H         1 <0>         0.1259
     49 H17         3.8218    1.0006    3.1863 H         1 <0>         0.1407
     50 H18         1.4878    0.5550    6.3752 H         1 <0>         0.1102
     51 H19        -0.2524    0.8256    3.8707 H         1 <0>         0.1008
     52 H20        -0.4881   -0.2801    5.2462 H         1 <0>         0.0819
     53 H21         0.9143    3.6548    4.2337 H         1 <0>         0.0795
     54 H22         1.4096    4.2165    5.8578 H         1 <0>         0.1235
     55 H23         0.5622   -3.1063    5.5727 H         1 <0>         0.4257
@<TRIPOS>BOND
     1    1    2 1
     2    1   33 1
     3    1   34 1
     4    1   35 1
     5    2    7 ar
     6    2    3 ar
     7    3    4 ar
     8    3   36 1
     9    4    5 ar
    10    4   37 1
    11    5    6 ar
    12    5   38 1
    13    6    7 ar
    14    6    8 1
    15    8   12 1
    16    8    9 2
    17    9   10 1
    18    9   24 1
    19   10   11 1
    20   10   55 1
    21   11   12 2
    22   11   13 1
    23   13   14 1
    24   13   39 1
    25   13   40 1
    26   14   15 1
    27   14   41 1
    28   15   20 ar
    29   15   16 ar
    30   16   17 ar
    31   16   42 1
    32   17   18 ar
    33   17   43 1
    34   18   19 ar
    35   18   21 1
    36   19   20 ar
    37   19   44 1
    38   20   45 1
    39   21   22 2
    40   21   23 am
    41   23   46 1
    42   23   47 1
    43   24   29 1
    44   24   25 2
    45   25   26 1
    46   25   48 1
    47   26   27 2
    48   26   49 1
    49   27   32 1
    50   27   28 1
    51   28   29 1
    52   28   30 1
    53   28   50 1
    54   29   51 1
    55   29   52 1
    56   30   31 1
    57   31   32 1
    58   31   53 1
    59   31   54 1
@<TRIPOS>MOLECULE
CHEMBL585103__1
   55    59     0     0     0
SMALL
USER_CHARGES

@<TRIPOS>ATOM
      1 C1         -0.2171    1.6593    0.2433 C.3       1 <0>        -0.1062
      2 C2         -0.2699    0.1550    0.1711 C.ar      1 <0>         0.1428
      3 C3         -0.4453   -0.4629   -1.0534 C.ar      1 <0>        -0.1698
      4 C4         -0.4932   -1.8495   -1.1181 C.ar      1 <0>        -0.0635
      5 C5         -0.3628   -2.5707    0.0541 C.ar      1 <0>        -0.1750
      6 C6         -0.1880   -1.8826    1.2583 C.ar      1 <0>         0.2016
      7 N1         -0.1428   -0.5529    1.2748 N.ar      1 <0>        -0.4546
      8 C7         -0.0473   -2.6350    2.5170 C.2       1 <0>         0.0353
      9 C8          0.6011   -2.2168    3.6728 C.2       1 <0>         0.0940
     10 N2          0.4888   -3.2120    4.5758 N.2       1 <0>        -0.4516
     11 C9         -0.1791   -4.2022    4.0542 C.2       1 <0>         0.2068
     12 N3         -0.5373   -3.8943    2.7894 N.pl3     1 <0>        -0.5462
     13 H1         -1.0441   -4.4568    2.1831 H         1 <0>         0.4244
     14 C10        -0.5069   -5.4936    4.7584 C.3       1 <0>         0.2089
     15 N4          0.6184   -6.4220    4.6249 N.pl3     1 <0>        -0.7345
     16 C11         0.5476   -7.6873    5.1971 C.ar      1 <0>         0.2464
     17 C12        -0.5958   -8.0724    5.8918 C.ar      1 <0>        -0.2084
     18 C13        -0.6690   -9.3239    6.4593 C.ar      1 <0>        -0.0052
     19 C14         0.4063  -10.2089    6.3377 C.ar      1 <0>        -0.2029
     20 C15         1.5530   -9.8192    5.6395 C.ar      1 <0>        -0.0336
     21 C16         1.6178   -8.5684    5.0694 C.ar      1 <0>        -0.2017
     22 C17         0.3313  -11.5511    6.9452 C.2       1 <0>         0.5676
     23 O1         -0.6665  -11.8886    7.5526 O.2       1 <0>        -0.5480
     24 N5          1.3688  -12.4032    6.8271 N.am      1 <0>        -0.8552
     25 C18         1.2818   -0.9307    3.8734 C.2       1 <0>        -0.0148
     26 C19         2.3264   -0.6130    3.0843 C.2       1 <0>        -0.0871
     27 C20         3.0453    0.6512    3.2960 C.2       1 <0>        -0.1132
     28 C21         2.8329    1.2859    4.4495 C.2       1 <0>         0.0098
     29 C22         1.9777    0.7308    5.5808 C.3       1 <0>         0.0877
     30 C23         0.7881   -0.0017    4.9519 C.3       1 <0>        -0.0779
     31 O2          1.5352    1.8978    6.2941 O.3       1 <0>        -0.3736
     32 C24         2.1439    3.0200    5.6226 C.3       1 <0>         0.2035
     33 O3          3.2811    2.4797    4.9092 O.3       1 <0>        -0.3101
     34 H2          0.8139    1.9928    0.1248 H         1 <0>         0.0821
     35 H3         -0.8298    2.0830   -0.5524 H         1 <0>         0.0772
     36 H4         -0.5971    1.9902    1.2098 H         1 <0>         0.0790
     37 H5         -0.5445    0.1279   -1.9520 H         1 <0>         0.1387
     38 H6         -0.6298   -2.3533   -2.0636 H         1 <0>         0.1391
     39 H7         -0.3958   -3.6501    0.0398 H         1 <0>         0.1285
     40 H8         -0.6909   -5.2951    5.8142 H         1 <0>         0.1013
     41 H9         -1.3974   -5.9354    4.3112 H         1 <0>         0.0830
     42 H10         1.4130   -6.1541    4.1372 H         1 <0>         0.4058
     43 H11        -1.4260   -7.3881    5.9858 H         1 <0>         0.1292
     44 H12        -1.5561   -9.6220    6.9984 H         1 <0>         0.1363
     45 H13         2.3855  -10.5005    5.5441 H         1 <0>         0.1256
     46 H14         2.5016   -8.2685    4.5258 H         1 <0>         0.1271
     47 H15         2.1648  -12.1339    6.3426 H         1 <0>         0.3993
     48 H16         1.3195  -13.2857    7.2266 H         1 <0>         0.4040
     49 H17         2.6350   -1.2860    2.2980 H         1 <0>         0.1198
     50 H18         3.7165    1.0493    2.5494 H         1 <0>         0.1381
     51 H19         2.5570    0.0649    6.2204 H         1 <0>         0.1119
     52 H20         0.0991    0.7233    4.5186 H         1 <0>         0.0910
     53 H21         0.2713   -0.5786    5.7189 H         1 <0>         0.0896
     54 H22         1.4385    3.4677    4.9226 H         1 <0>         0.0765
     55 H23         2.4739    3.7607    6.3511 H         1 <0>         0.1213
@<TRIPOS>BOND
     1    1    2 1
     2    1   34 1
     3    1   35 1
     4    1   36 1
     5    2    7 ar
     6    2    3 ar
     7    3    4 ar
     8    3   37 1
     9    4    5 ar
    10    4   38 1
    11    5    6 ar
    12    5   39 1
    13    6    7 ar
    14    6    8 1
    15    8   12 1
    16    8    9 2
    17    9   10 1
    18    9   25 1
    19   10   11 2
    20   11   12 1
    21   11   14 1
    22   12   13 1
    23   14   15 1
    24   14   40 1
    25   14   41 1
    26   15   16 1
    27   15   42 1
    28   16   21 ar
    29   16   17 ar
    30   17   18 ar
    31   17   43 1
    32   18   19 ar
    33   18   44 1
    34   19   20 ar
    35   19   22 1
    36   20   21 ar
    37   20   45 1
    38   21   46 1
    39   22   23 2
    40   22   24 am
    41   24   47 1
    42   24   48 1
    43   25   30 1
    44   25   26 2
    45   26   27 1
    46   26   49 1
    47   27   28 2
    48   27   50 1
    49   28   33 1
    50   28   29 1
    51   29   30 1
    52   29   31 1
    53   29   51 1
    54   30   52 1
    55   30   53 1
    56   31   32 1
    57   32   33 1
    58   32   54 1
    59   32   55 1
@<TRIPOS>MOLECULE
CHEMBL585103__2
   55    59     0     0     0
SMALL
USER_CHARGES

@<TRIPOS>ATOM
      1 C1         -0.0184    1.5028    0.0103 C.3       1 <0>        -0.1038
      2 C2          0.0021   -0.0041    0.0020 C.ar      1 <0>         0.1303
      3 C3          0.0055   -0.6791   -1.2044 C.ar      1 <0>        -0.1723
      4 C4          0.0244   -2.0676   -1.2092 C.ar      1 <0>        -0.0718
      5 C5          0.0392   -2.7324    0.0034 C.ar      1 <0>        -0.1484
      6 C6          0.0347   -1.9883    1.1846 C.ar      1 <0>         0.2138
      7 N1          0.0218   -0.6598    1.1447 N.ar      1 <0>        -0.4682
      8 C7          0.0498   -2.6828    2.4891 C.2       1 <0>         0.0546
      9 C8          0.5171   -2.1648    3.6924 C.2       1 <0>         0.0837
     10 N2          0.3354   -3.1569    4.6310 N.pl3     1 <0>        -0.5515
     11 C9         -0.2210   -4.2196    3.9920 C.2       1 <0>         0.1920
     12 N3         -0.3917   -3.9315    2.7327 N.2       1 <0>        -0.4437
     13 C10        -0.5897   -5.5284    4.6416 C.3       1 <0>         0.2112
     14 N4         -2.0040   -5.5030    5.0227 N.pl3     1 <0>        -0.7343
     15 C11        -2.5767   -6.6076    5.6434 C.ar      1 <0>         0.2469
     16 C12        -1.8033   -7.7348    5.9072 C.ar      1 <0>        -0.2088
     17 C13        -2.3672   -8.8296    6.5213 C.ar      1 <0>        -0.0051
     18 C14        -3.7181   -8.8091    6.8805 C.ar      1 <0>        -0.2037
     19 C15        -4.4920   -7.6757    6.6143 C.ar      1 <0>        -0.0335
     20 C16        -3.9209   -6.5820    6.0050 C.ar      1 <0>        -0.2023
     21 C17        -4.3258   -9.9812    7.5386 C.2       1 <0>         0.5677
     22 O1         -3.6515  -10.9665    7.7692 O.2       1 <0>        -0.5483
     23 N5         -5.6283   -9.9599    7.8843 N.am      1 <0>        -0.8553
     24 C18         1.0858   -0.8371    3.9159 C.2       1 <0>        -0.0723
     25 C19         2.3395   -0.5772    3.4882 C.2       1 <0>        -0.0481
     26 C20         2.9103    0.7137    3.6645 C.2       1 <0>        -0.1667
     27 C21         2.0868    1.7266    3.9624 C.2       1 <0>         0.0570
     28 C22         0.5701    1.5822    4.0211 C.3       1 <0>         0.0785
     29 C23         0.2555    0.2108    4.6132 C.3       1 <0>        -0.0589
     30 O2          0.2045    2.6282    4.9502 O.3       1 <0>        -0.3644
     31 C24         1.1344    3.6789    4.5903 C.3       1 <0>         0.1998
     32 O3          2.3657    3.0150    4.2504 O.3       1 <0>        -0.3088
     33 H1          1.0042    1.8801    0.0026 H         1 <0>         0.0780
     34 H2         -0.5455    1.8639   -0.8728 H         1 <0>         0.0767
     35 H3         -0.5286    1.8543    0.9071 H         1 <0>         0.0722
     36 H4         -0.0067   -0.1313   -2.1351 H         1 <0>         0.1342
     37 H5          0.0270   -2.6163   -2.1394 H         1 <0>         0.1366
     38 H6          0.0536   -3.8118    0.0361 H         1 <0>         0.1389
     39 H7         -0.4173   -6.3439    3.9393 H         1 <0>         0.0992
     40 H8          0.0234   -5.6784    5.5302 H         1 <0>         0.0826
     41 H9         -2.5410   -4.7156    4.8421 H         1 <0>         0.4057
     42 H10        -0.7599   -7.7501    5.6291 H         1 <0>         0.1291
     43 H11        -1.7668   -9.7038    6.7253 H         1 <0>         0.1361
     44 H12        -5.5360   -7.6570    6.8903 H         1 <0>         0.1254
     45 H13        -4.5171   -5.7043    5.8034 H         1 <0>         0.1268
     46 H14        -6.1661   -9.1739    7.7003 H         1 <0>         0.3993
     47 H15        -6.0279  -10.7306    8.3170 H         1 <0>         0.4039
     48 H16         2.9139   -1.3558    3.0085 H         1 <0>         0.1244
     49 H17         3.9737    0.8717    3.5618 H         1 <0>         0.1374
     50 H18         0.1079    1.7141    3.0428 H         1 <0>         0.1166
     51 H19        -0.8026   -0.0118    4.4754 H         1 <0>         0.0890
     52 H20         0.4922    0.2144    5.6772 H         1 <0>         0.0870
     53 H21         0.7583    4.2359    3.7321 H         1 <0>         0.0847
     54 H22         1.2897    4.3493    5.4356 H         1 <0>         0.1247
     55 H23         0.5622   -3.1063    5.5727 H         1 <0>         0.4258
@<TRIPOS>BOND
     1    1    2 1
     2    1   33 1
     3    1   34 1
     4    1   35 1
     5    2    7 ar
     6    2    3 ar
     7    3    4 ar
     8    3   36 1
     9    4    5 ar
    10    4   37 1
    11    5    6 ar
    12    5   38 1
    13    6    7 ar
    14    6    8 1
    15    8   12 1
    16    8    9 2
    17    9   10 1
    18    9   24 1
    19   10   11 1
    20   10   55 1
    21   11   12 2
    22   11   13 1
    23   13   14 1
    24   13   39 1
    25   13   40 1
    26   14   15 1
    27   14   41 1
    28   15   20 ar
    29   15   16 ar
    30   16   17 ar
    31   16   42 1
    32   17   18 ar
    33   17   43 1
    34   18   19 ar
    35   18   21 1
    36   19   20 ar
    37   19   44 1
    38   20   45 1
    39   21   22 2
    40   21   23 am
    41   23   46 1
    42   23   47 1
    43   24   29 1
    44   24   25 2
    45   25   26 1
    46   25   48 1
    47   26   27 2
    48   26   49 1
    49   27   32 1
    50   27   28 1
    51   28   29 1
    52   28   30 1
    53   28   50 1
    54   29   51 1
    55   29   52 1
    56   30   31 1
    57   31   32 1
    58   31   53 1
    59   31   54 1
@<TRIPOS>MOLECULE
CHEMBL585103__3
   55    59     0     0     0
SMALL
USER_CHARGES

@<TRIPOS>ATOM
      1 C1         -0.1883    1.6471    0.2228 C.3       1 <0>        -0.1061
      2 C2         -0.2421    0.1425    0.1559 C.ar      1 <0>         0.1425
      3 C3         -0.4092   -0.4798   -1.0675 C.ar      1 <0>        -0.1701
      4 C4         -0.4580   -1.8666   -1.1273 C.ar      1 <0>        -0.0632
      5 C5         -0.3369   -2.5835    0.0486 C.ar      1 <0>        -0.1752
      6 C6         -0.1702   -1.8910    1.2514 C.ar      1 <0>         0.2036
      7 N1         -0.1238   -0.5613    1.2632 N.ar      1 <0>        -0.4550
      8 C7         -0.0394   -2.6387    2.5139 C.2       1 <0>         0.0327
      9 C8          0.6011   -2.2168    3.6728 C.2       1 <0>         0.0999
     10 N2          0.4812   -3.2085    4.5788 N.2       1 <0>        -0.4525
     11 C9         -0.1841   -4.1999    4.0561 C.2       1 <0>         0.2058
     12 N3         -0.5328   -3.8964    2.7876 N.pl3     1 <0>        -0.5465
     13 H1         -1.0358   -4.4606    2.1798 H         1 <0>         0.4240
     14 C10        -0.5185   -5.4882    4.7628 C.3       1 <0>         0.2088
     15 N4          0.6068   -6.4184    4.6410 N.pl3     1 <0>        -0.7343
     16 C11         0.5303   -7.6813    5.2176 C.ar      1 <0>         0.2466
     17 C12        -0.6184   -8.0625    5.9055 C.ar      1 <0>        -0.2086
     18 C13        -0.6971   -9.3118    6.4772 C.ar      1 <0>        -0.0052
     19 C14         0.3780  -10.1984    6.3666 C.ar      1 <0>        -0.2031
     20 C15         1.5301   -9.8127    5.6753 C.ar      1 <0>        -0.0336
     21 C16         1.6005   -8.5641    5.1009 C.ar      1 <0>        -0.2018
     22 C17         0.2971  -11.5382    6.9788 C.2       1 <0>         0.5676
     23 O1         -0.7055  -11.8723    7.5802 O.2       1 <0>        -0.5481
     24 N5          1.3345  -12.3919    6.8714 N.am      1 <0>        -0.8552
     25 C18         1.2818   -0.9307    3.8734 C.2       1 <0>        -0.0360
     26 C19         2.3268   -0.6101    3.0858 C.2       1 <0>        -0.0684
     27 C20         2.9973    0.6860    3.2483 C.2       1 <0>        -0.1558
     28 C21         2.3552    1.6272    3.9511 C.2       1 <0>         0.0421
     29 C22         0.9407    1.4470    4.4895 C.3       1 <0>         0.0796
     30 C23         0.7905    0.0011    4.9513 C.3       1 <0>        -0.0586
     31 O2          0.9341    2.3424    5.6251 O.3       1 <0>        -0.3644
     32 C24         1.7260    3.4501    5.1313 C.3       1 <0>         0.2008
     33 O3          2.7560    2.8634    4.3144 O.3       1 <0>        -0.3116
     34 H2          0.8438    1.9791    0.1105 H         1 <0>         0.0823
     35 H3         -0.7948    2.0683   -0.5790 H         1 <0>         0.0776
     36 H4         -0.5751    1.9821    1.1853 H         1 <0>         0.0766
     37 H5         -0.5013    0.1077   -1.9690 H         1 <0>         0.1383
     38 H6         -0.5882   -2.3738   -2.0718 H         1 <0>         0.1389
     39 H7         -0.3709   -3.6629    0.0381 H         1 <0>         0.1284
     40 H8         -0.7098   -5.2855    5.8166 H         1 <0>         0.1011
     41 H9         -1.4062   -5.9307    4.3109 H         1 <0>         0.0827
     42 H10         1.4051   -6.1532    4.1581 H         1 <0>         0.4059
     43 H11        -1.4486   -7.3770    5.9908 H         1 <0>         0.1291
     44 H12        -1.5884   -9.6068    7.0110 H         1 <0>         0.1362
     45 H13         2.3625  -10.4953    5.5885 H         1 <0>         0.1256
     46 H14         2.4885   -8.2673    4.5625 H         1 <0>         0.1272
     47 H15         2.1343  -12.1254    6.3916 H         1 <0>         0.3993
     48 H16         1.2813  -13.2728    7.2739 H         1 <0>         0.4040
     49 H17         2.6714   -1.3062    2.3354 H         1 <0>         0.1187
     50 H18         3.9702    0.8726    2.8182 H         1 <0>         0.1353
     51 H19         0.1859    1.7116    3.7490 H         1 <0>         0.1091
     52 H20        -0.2589   -0.2065    5.1603 H         1 <0>         0.0862
     53 H21         1.3777   -0.1500    5.8572 H         1 <0>         0.0922
     54 H22         1.1063    4.1179    4.5328 H         1 <0>         0.0818
     55 H23         2.1711    3.9947    5.9640 H         1 <0>         0.1229
@<TRIPOS>BOND
     1    1    2 1
     2    1   34 1
     3    1   35 1
     4    1   36 1
     5    2    7 ar
     6    2    3 ar
     7    3    4 ar
     8    3   37 1
     9    4    5 ar
    10    4   38 1
    11    5    6 ar
    12    5   39 1
    13    6    7 ar
    14    6    8 1
    15    8   12 1
    16    8    9 2
    17    9   10 1
    18    9   25 1
    19   10   11 2
    20   11   12 1
    21   11   14 1
    22   12   13 1
    23   14   15 1
    24   14   40 1
    25   14   41 1
    26   15   16 1
    27   15   42 1
    28   16   21 ar
    29   16   17 ar
    30   17   18 ar
    31   17   43 1
    32   18   19 ar
    33   18   44 1
    34   19   20 ar
    35   19   22 1
    36   20   21 ar
    37   20   45 1
    38   21   46 1
    39   22   23 2
    40   22   24 am
    41   24   47 1
    42   24   48 1
    43   25   30 1
    44   25   26 2
    45   26   27 1
    46   26   49 1
    47   27   28 2
    48   27   50 1
    49   28   33 1
    50   28   29 1
    51   29   30 1
    52   29   31 1
    53   29   51 1
    54   30   52 1
    55   30   53 1
    56   31   32 1
    57   32   33 1
    58   32   54 1
    59   32   55 1
@<TRIPOS>MOLECULE
CHEMBL563421
   44    47     0     0     0
SMALL
USER_CHARGES

@<TRIPOS>ATOM
      1 C1          1.1068    1.4334    0.0678 C.3       1 <0>        -0.1026
      2 C2          0.8942   -0.0584    0.0471 C.ar      1 <0>         0.1239
      3 C3          0.9192   -0.7349   -1.1601 C.ar      1 <0>        -0.1548
      4 C4          0.7235   -2.1077   -1.1742 C.ar      1 <0>        -0.0802
      5 C5          0.5084   -2.7571    0.0303 C.ar      1 <0>        -0.1253
      6 C6          0.4961   -2.0131    1.2073 C.ar      1 <0>         0.1718
      7 N1          0.6925   -0.7013    1.1781 N.ar      1 <0>        -0.4383
      8 C7          0.2670   -2.6940    2.5056 C.ar      1 <0>         0.4138
      9 N2          0.0844   -4.0009    2.5104 N.ar      1 <0>        -0.5303
     10 C8         -0.1250   -4.6523    3.6618 C.ar      1 <0>         0.1918
     11 C9         -0.3221   -6.0402    3.7034 C.ar      1 <0>        -0.1053
     12 C10        -0.5308   -6.6546    4.9021 C.ar      1 <0>        -0.0725
     13 C11        -0.5516   -5.9258    6.0880 C.ar      1 <0>        -0.1257
     14 C12        -0.3638   -4.5745    6.0835 C.ar      1 <0>        -0.0733
     15 C13        -0.1465   -3.9127    4.8705 C.ar      1 <0>        -0.1886
     16 C14         0.0556   -2.5115    4.8048 C.ar      1 <0>         0.4651
     17 N3          0.2597   -1.9616    3.6170 N.ar      1 <0>        -0.5443
     18 N4          0.0446   -1.7406    5.9491 N.pl3     1 <0>        -0.6378
     19 C15         0.1248   -0.3480    5.8546 C.ar      1 <0>         0.1430
     20 C16        -0.4874    0.3133    4.7959 C.ar      1 <0>        -0.0689
     21 C17        -0.4106    1.6897    4.6978 C.ar      1 <0>        -0.1029
     22 C18         0.2740    2.4171    5.6504 C.ar      1 <0>        -0.0976
     23 C19         0.8917    1.7628    6.7174 C.ar      1 <0>        -0.1230
     24 C20         0.8099    0.3741    6.8195 C.ar      1 <0>        -0.0846
     25 C21         1.6257    2.5398    7.7392 C.2       1 <0>         0.5654
     26 O1          2.1628    1.9680    8.6676 O.2       1 <0>        -0.5402
     27 N5          1.6990    3.8820    7.6411 N.am      1 <0>        -0.8498
     28 H1          2.1706    1.6474    0.1704 H         1 <0>         0.0785
     29 H2          0.7372    1.8660   -0.8620 H         1 <0>         0.0757
     30 H3          0.5662    1.8658    0.9097 H         1 <0>         0.0785
     31 H4          1.0891   -0.1988   -2.0822 H         1 <0>         0.1385
     32 H5          0.7382   -2.6580   -2.1034 H         1 <0>         0.1415
     33 H6          0.3521   -3.8254    0.0561 H         1 <0>         0.1494
     34 H7         -0.3089   -6.6185    2.7914 H         1 <0>         0.1427
     35 H8         -0.6828   -7.7234    4.9323 H         1 <0>         0.1363
     36 H9         -0.7190   -6.4370    7.0245 H         1 <0>         0.1334
     37 H10        -0.3820   -4.0199    7.0100 H         1 <0>         0.1277
     38 H11        -0.0186   -2.1648    6.8191 H         1 <0>         0.4230
     39 H12        -1.0244   -0.2505    4.0475 H         1 <0>         0.1387
     40 H13        -0.8875    2.1979    3.8727 H         1 <0>         0.1334
     41 H14         0.3320    3.4926    5.5699 H         1 <0>         0.1275
     42 H15         1.2821   -0.1373    7.6453 H         1 <0>         0.1380
     43 H16         1.2703    4.3383    6.9002 H         1 <0>         0.4018
     44 H17         2.1805    4.3916    8.3114 H         1 <0>         0.4065
@<TRIPOS>BOND
     1    1    2 1
     2    1   28 1
     3    1   29 1
     4    1   30 1
     5    2    7 ar
     6    2    3 ar
     7    3    4 ar
     8    3   31 1
     9    4    5 ar
    10    4   32 1
    11    5    6 ar
    12    5   33 1
    13    6    7 ar
    14    6    8 1
    15    8   17 ar
    16    8    9 ar
    17    9   10 ar
    18   10   15 ar
    19   10   11 ar
    20   11   12 ar
    21   11   34 1
    22   12   13 ar
    23   12   35 1
    24   13   14 ar
    25   13   36 1
    26   14   15 ar
    27   14   37 1
    28   15   16 ar
    29   16   17 ar
    30   16   18 1
    31   18   19 1
    32   18   38 1
    33   19   24 ar
    34   19   20 ar
    35   20   21 ar
    36   20   39 1
    37   21   22 ar
    38   21   40 1
    39   22   23 ar
    40   22   41 1
    41   23   24 ar
    42   23   25 1
    43   24   42 1
    44   25   26 2
    45   25   27 am
    46   27   43 1
    47   27   44 1
@<TRIPOS>MOLECULE
CHEMBL520104
   46    50     0     0     0
SMALL
USER_CHARGES

@<TRIPOS>ATOM
      1 C1         -0.0184    1.5028    0.0103 C.3       1 <0>        -0.1054
      2 C2          0.0021   -0.0041    0.0020 C.ar      1 <0>         0.1109
      3 C3          0.0056   -0.6807   -1.2062 C.ar      1 <0>         0.0464
      4 C4          0.0249   -2.0708   -1.2088 C.ar      1 <0>        -0.1048
      5 C5          0.0401   -2.7331    0.0052 C.ar      1 <0>        -0.1167
      6 C6          0.0355   -1.9878    1.1846 C.ar      1 <0>         0.2019
      7 N1          0.0218   -0.6602    1.1444 N.ar      1 <0>        -0.4460
      8 C7          0.0510   -2.6821    2.4912 C.2       1 <0>         0.1040
      9 C8          0.5157   -2.1641    3.6841 C.2       1 <0>         0.0346
     10 N2          0.3377   -3.1518    4.6322 N.pl3     1 <0>        -0.5851
     11 H1          0.5669   -3.0944    5.5730 H         1 <0>         0.4199
     12 C9         -0.2195   -4.2218    4.0004 C.2       1 <0>         0.5115
     13 N3         -0.3916   -3.9336    2.7335 N.2       1 <0>        -0.5157
     14 N4         -0.5559   -5.4209    4.6017 N.pl3     1 <0>        -0.6038
     15 C10        -0.3306   -5.6366    6.0397 C.3       1 <0>         0.0930
     16 C11        -1.6306   -6.1621    6.6593 C.3       1 <0>         0.0475
     17 O1         -2.0852   -7.2924    5.9114 O.3       1 <0>        -0.3761
     18 C12        -2.4103   -7.0011    4.5500 C.3       1 <0>         0.0441
     19 C13        -1.1554   -6.5165    3.8235 C.3       1 <0>         0.1068
     20 C14         1.0896   -0.8211    3.9020 C.2       1 <0>        -0.0354
     21 C15         0.2455    0.3141    3.9425 C.2       1 <0>        -0.0081
     22 C16         0.7868    1.5434    4.1442 C.2       1 <0>        -0.1103
     23 C17         2.1790    1.6724    4.3102 C.2       1 <0>         0.2884
     24 N5          2.9663    2.7229    4.5178 N.2       1 <0>        -0.5474
     25 C18         4.2271    2.3253    4.6082 C.2       1 <0>         0.2415
     26 N6          4.2901    1.0223    4.4635 N.2       1 <0>        -0.3460
     27 N7          2.9786    0.5657    4.2682 N.pl3     1 <0>        -0.2861
     28 C19         2.4471   -0.6691    4.0722 C.2       1 <0>         0.1317
     29 F1         -0.0101    0.0034   -2.3711 F         1 <0>        -0.1271
     30 H2          1.0042    1.8801    0.0026 H         1 <0>         0.0809
     31 H3         -0.5455    1.8639   -0.8728 H         1 <0>         0.0801
     32 H4         -0.5286    1.8543    0.9071 H         1 <0>         0.0848
     33 H5          0.0277   -2.6211   -2.1380 H         1 <0>         0.1507
     34 H6          0.0549   -3.8125    0.0398 H         1 <0>         0.1511
     35 H7          0.4652   -6.3679    6.1810 H         1 <0>         0.0821
     36 H8         -0.0527   -4.6949    6.5131 H         1 <0>         0.0780
     37 H9         -1.4478   -6.4586    7.6922 H         1 <0>         0.1094
     38 H10        -2.3887   -5.3793    6.6332 H         1 <0>         0.0576
     39 H11        -2.7884   -7.9012    4.0654 H         1 <0>         0.1109
     40 H12        -3.1713   -6.2214    4.5162 H         1 <0>         0.0578
     41 H13        -1.4235   -6.1573    2.8300 H         1 <0>         0.1072
     42 H14        -0.4441   -7.3379    3.7378 H         1 <0>         0.0750
     43 H15        -0.8211    0.2037    3.8137 H         1 <0>         0.1510
     44 H16         0.1529    2.4172    4.1768 H         1 <0>         0.1601
     45 H17         5.0738    2.9745    4.7752 H         1 <0>         0.2269
     46 H18         3.0927   -1.5345    4.0458 H         1 <0>         0.1682
@<TRIPOS>BOND
     1    1    2 1
     2    1   30 1
     3    1   31 1
     4    1   32 1
     5    2    7 ar
     6    2    3 ar
     7    3    4 ar
     8    3   29 1
     9    4    5 ar
    10    4   33 1
    11    5    6 ar
    12    5   34 1
    13    6    7 ar
    14    6    8 1
    15    8   13 1
    16    8    9 2
    17    9   10 1
    18    9   20 1
    19   10   11 1
    20   10   12 1
    21   12   13 2
    22   12   14 1
    23   14   19 1
    24   14   15 1
    25   15   16 1
    26   15   35 1
    27   15   36 1
    28   16   17 1
    29   16   37 1
    30   16   38 1
    31   17   18 1
    32   18   19 1
    33   18   39 1
    34   18   40 1
    35   19   41 1
    36   19   42 1
    37   20   28 2
    38   20   21 1
    39   21   22 2
    40   21   43 1
    41   22   23 1
    42   22   44 1
    43   23   27 1
    44   23   24 2
    45   24   25 1
    46   25   26 2
    47   25   45 1
    48   26   27 1
    49   27   28 1
    50   28   46 1
@<TRIPOS>MOLECULE
CHEMBL520104__1
   47    51     0     0     0
SMALL
USER_CHARGES

@<TRIPOS>ATOM
      1 C1         -0.0184    1.5028    0.0103 C.3       1 <0>        -0.1140
      2 C2          0.0021   -0.0041    0.0020 C.ar      1 <0>         0.1266
      3 C3          0.0056   -0.6807   -1.2062 C.ar      1 <0>         0.0805
      4 C4          0.0249   -2.0708   -1.2088 C.ar      1 <0>        -0.0933
      5 C5          0.0401   -2.7331    0.0052 C.ar      1 <0>        -0.1288
      6 C6          0.0355   -1.9878    1.1846 C.ar      1 <0>         0.1551
      7 N1          0.0218   -0.6602    1.1444 N.ar      1 <0>        -0.4271
      8 C7          0.0510   -2.6821    2.4912 C.2       1 <0>         0.1099
      9 C8          0.5157   -2.1641    3.6841 C.2       1 <0>         0.1542
     10 N2          0.3377   -3.1518    4.6322 N.pl3     1 <0>        -0.5483
     11 H1          0.5669   -3.0944    5.5730 H         1 <0>         0.4603
     12 C9         -0.2195   -4.2218    4.0004 C.cat     1 <0>         0.6072
     13 N3         -0.3916   -3.9336    2.7335 N.pl3     1 <0>        -0.5157
     14 N4         -0.5559   -5.4209    4.6017 N.pl3     1 <0>        -0.5787
     15 C10        -1.0477   -6.5561    3.8049 C.3       1 <0>         0.0759
     16 C11        -0.2313   -7.7986    4.1784 C.3       1 <0>         0.0446
     17 O1         -0.2494   -7.9644    5.5983 O.3       1 <0>        -0.3607
     18 C12         0.3542   -6.8886    6.3209 C.3       1 <0>         0.0436
     19 C13        -0.4268   -5.6013    6.0564 C.3       1 <0>         0.0781
     20 C14         1.0896   -0.8211    3.9020 C.2       1 <0>        -0.0928
     21 C15         0.2455    0.3141    3.9425 C.2       1 <0>        -0.0140
     22 C16         0.7868    1.5434    4.1442 C.2       1 <0>        -0.0933
     23 C17         2.1790    1.6724    4.3102 C.2       1 <0>         0.2944
     24 N5          2.9663    2.7229    4.5178 N.2       1 <0>        -0.5318
     25 C18         4.2271    2.3253    4.6082 C.2       1 <0>         0.2571
     26 N6          4.2901    1.0223    4.4635 N.2       1 <0>        -0.3338
     27 N7          2.9786    0.5657    4.2682 N.pl3     1 <0>        -0.2948
     28 C19         2.4471   -0.6691    4.0722 C.2       1 <0>         0.1707
     29 F1         -0.0101    0.0034   -2.3711 F         1 <0>        -0.1100
     30 H2          1.0042    1.8801    0.0026 H         1 <0>         0.0906
     31 H3         -0.5455    1.8639   -0.8728 H         1 <0>         0.0894
     32 H4         -0.5286    1.8543    0.9071 H         1 <0>         0.0919
     33 H5          0.0277   -2.6211   -2.1380 H         1 <0>         0.1638
     34 H6          0.0549   -3.8125    0.0398 H         1 <0>         0.1448
     35 H7         -2.1013   -6.7295    4.0242 H         1 <0>         0.1132
     36 H8         -0.9237   -6.3408    2.7436 H         1 <0>         0.0946
     37 H9         -0.6679   -8.6774    3.7037 H         1 <0>         0.1286
     38 H10         0.7971   -7.6740    3.8395 H         1 <0>         0.0677
     39 H11         0.3389   -7.1126    7.3875 H         1 <0>         0.1288
     40 H12         1.3848   -6.7606    5.9897 H         1 <0>         0.0670
     41 H13         0.1081   -4.7539    6.4853 H         1 <0>         0.0953
     42 H14        -1.4168   -5.6769    6.5062 H         1 <0>         0.1127
     43 H15        -0.8211    0.2037    3.8137 H         1 <0>         0.1558
     44 H16         0.1529    2.4172    4.1768 H         1 <0>         0.1688
     45 H17         5.0738    2.9745    4.7752 H         1 <0>         0.2349
     46 H18         3.0927   -1.5345    4.0458 H         1 <0>         0.1739
     47 H19        -0.7756   -4.5294    2.0713 H         1 <0>         0.4575
@<TRIPOS>BOND
     1    1    2 1
     2    1   30 1
     3    1   31 1
     4    1   32 1
     5    2    7 ar
     6    2    3 ar
     7    3    4 ar
     8    3   29 1
     9    4    5 ar
    10    4   33 1
    11    5    6 ar
    12    5   34 1
    13    6    7 ar
    14    6    8 1
    15    8   13 1
    16    8    9 2
    17    9   10 1
    18    9   20 1
    19   10   11 1
    20   10   12 1
    21   12   13 2
    22   12   14 1
    23   13   47 1
    24   14   19 1
    25   14   15 1
    26   15   16 1
    27   15   35 1
    28   15   36 1
    29   16   17 1
    30   16   37 1
    31   16   38 1
    32   17   18 1
    33   18   19 1
    34   18   39 1
    35   18   40 1
    36   19   41 1
    37   19   42 1
    38   20   28 2
    39   20   21 1
    40   21   22 2
    41   21   43 1
    42   22   23 1
    43   22   44 1
    44   23   27 1
    45   23   24 2
    46   24   25 1
    47   25   26 2
    48   25   45 1
    49   26   27 1
    50   27   28 1
    51   28   46 1
@<TRIPOS>MOLECULE
CHEMBL520104__2
   46    50     0     0     0
SMALL
USER_CHARGES

@<TRIPOS>ATOM
      1 C1         -0.1717    1.6480    0.2227 C.3       1 <0>        -0.1082
      2 C2         -0.2331    0.1438    0.1561 C.ar      1 <0>         0.1234
      3 C3         -0.4064   -0.4791   -1.0683 C.ar      1 <0>         0.0433
      4 C4         -0.4622   -1.8676   -1.1262 C.ar      1 <0>        -0.0940
      5 C5         -0.3418   -2.5830    0.0502 C.ar      1 <0>        -0.1504
      6 C6         -0.1689   -1.8901    1.2517 C.ar      1 <0>         0.2058
      7 N1         -0.1158   -0.5611    1.2632 N.ar      1 <0>        -0.4400
      8 C7         -0.0393   -2.6380    2.5149 C.2       1 <0>         0.0053
      9 C8          0.6030   -2.2187    3.6641 C.2       1 <0>         0.1366
     10 N2          0.4865   -3.2000    4.5787 N.2       1 <0>        -0.5204
     11 H1         -1.0492   -4.4607    2.1827 H         1 <0>         0.4195
     12 C9         -0.1886   -4.2019    4.0671 C.2       1 <0>         0.5192
     13 N3         -0.5421   -3.8985    2.7890 N.pl3     1 <0>        -0.5848
     14 N4         -0.4964   -5.3774    4.7243 N.pl3     1 <0>        -0.6016
     15 C10        -1.2560   -6.4441    4.0531 C.3       1 <0>         0.0919
     16 C11        -0.4988   -7.7645    4.2345 C.3       1 <0>         0.0477
     17 O1         -0.2206   -7.9606    5.6230 O.3       1 <0>        -0.3758
     18 C12         0.6258   -6.9617    6.1971 C.3       1 <0>         0.0444
     19 C13        -0.0690   -5.6024    6.1143 C.3       1 <0>         0.1052
     20 C14         1.2960   -0.9230    3.8553 C.2       1 <0>        -0.0211
     21 C15         2.3882   -0.5761    3.0282 C.2       1 <0>        -0.0279
     22 C16         3.0158    0.6153    3.2126 C.2       1 <0>        -0.1070
     23 C17         2.5673    1.4847    4.2250 C.2       1 <0>         0.2855
     24 N5          2.9740    2.6836    4.6283 N.2       1 <0>        -0.5488
     25 C18         2.2178    3.0963    5.6352 C.2       1 <0>         0.2378
     26 N6          1.3117    2.1868    5.9080 N.2       1 <0>        -0.3433
     27 N7          1.5092    1.1266    5.0117 N.pl3     1 <0>        -0.2828
     28 C19         0.8768   -0.0611    4.8264 C.2       1 <0>         0.1447
     29 F1         -0.5207    0.2554   -2.1964 F         1 <0>        -0.1249
     30 H2          0.8618    1.9749    0.1080 H         1 <0>         0.0871
     31 H3         -0.7779    2.0722   -0.5777 H         1 <0>         0.0815
     32 H4         -0.5545    1.9850    1.1861 H         1 <0>         0.0832
     33 H5         -0.5971   -2.3755   -2.0697 H         1 <0>         0.1515
     34 H6         -0.3810   -3.6622    0.0412 H         1 <0>         0.1385
     35 H7         -2.2474   -6.5251    4.4989 H         1 <0>         0.0832
     36 H8         -1.3481   -6.2166    2.9910 H         1 <0>         0.0781
     37 H9         -1.1099   -8.5883    3.8658 H         1 <0>         0.1098
     38 H10         0.4373   -7.7269    3.6774 H         1 <0>         0.0577
     39 H11         0.8237   -7.2078    7.2404 H         1 <0>         0.1117
     40 H12         1.5660   -6.9211    5.6472 H         1 <0>         0.0582
     41 H13         0.6246   -4.8178    6.4167 H         1 <0>         0.1083
     42 H14        -0.9388   -5.5972    6.7712 H         1 <0>         0.0763
     43 H15         2.7219   -1.2529    2.2556 H         1 <0>         0.1423
     44 H16         3.8519    0.8926    2.5878 H         1 <0>         0.1578
     45 H17         2.3303    4.0375    6.1528 H         1 <0>         0.2257
     46 H18         0.0391   -0.3266    5.4542 H         1 <0>         0.1697
@<TRIPOS>BOND
     1    1    2 1
     2    1   30 1
     3    1   31 1
     4    1   32 1
     5    2    7 ar
     6    2    3 ar
     7    3    4 ar
     8    3   29 1
     9    4    5 ar
    10    4   33 1
    11    5    6 ar
    12    5   34 1
    13    6    7 ar
    14    6    8 1
    15    8    9 2
    16    8   13 1
    17    9   10 1
    18    9   20 1
    19   10   12 2
    20   11   13 1
    21   12   14 1
    22   12   13 1
    23   14   19 1
    24   14   15 1
    25   15   16 1
    26   15   35 1
    27   15   36 1
    28   16   17 1
    29   16   37 1
    30   16   38 1
    31   17   18 1
    32   18   19 1
    33   18   39 1
    34   18   40 1
    35   19   41 1
    36   19   42 1
    37   20   28 2
    38   20   21 1
    39   21   22 2
    40   21   43 1
    41   22   23 1
    42   22   44 1
    43   23   27 1
    44   23   24 2
    45   24   25 1
    46   25   26 2
    47   25   45 1
    48   26   27 1
    49   27   28 1
    50   28   46 1
@<TRIPOS>MOLECULE
CHEMBL481546
   48    52     0     0     0
SMALL
USER_CHARGES

@<TRIPOS>ATOM
      1 C1         -0.0184    1.5028    0.0103 C.3       1 <0>        -0.1053
      2 C2          0.0021   -0.0041    0.0020 C.ar      1 <0>         0.1107
      3 C3          0.0056   -0.6807   -1.2062 C.ar      1 <0>         0.0455
      4 C4          0.0249   -2.0708   -1.2088 C.ar      1 <0>        -0.1050
      5 C5          0.0401   -2.7331    0.0052 C.ar      1 <0>        -0.1169
      6 C6          0.0355   -1.9878    1.1846 C.ar      1 <0>         0.2030
      7 N1          0.0218   -0.6602    1.1444 N.ar      1 <0>        -0.4463
      8 C7          0.0510   -2.6821    2.4912 C.2       1 <0>         0.1035
      9 C8          0.5157   -2.1641    3.6841 C.2       1 <0>         0.0311
     10 N2          0.3377   -3.1518    4.6322 N.pl3     1 <0>        -0.5862
     11 H1          0.5669   -3.0944    5.5730 H         1 <0>         0.4195
     12 C9         -0.2195   -4.2218    4.0004 C.2       1 <0>         0.5129
     13 N3         -0.3916   -3.9336    2.7335 N.2       1 <0>        -0.5178
     14 N4         -0.5559   -5.4209    4.6017 N.pl3     1 <0>        -0.5987
     15 C10        -0.3275   -5.6280    6.0382 C.3       1 <0>         0.1280
     16 C11        -1.6404   -6.0784    6.6864 C.3       1 <0>        -0.1369
     17 C12        -2.1716   -7.3106    5.9504 C.3       1 <0>        -0.1205
     18 C13        -2.4523   -6.9524    4.4892 C.3       1 <0>        -0.1385
     19 C14        -1.1542   -6.5097    3.8173 C.3       1 <0>         0.1399
     20 C15         1.0896   -0.8211    3.9020 C.2       1 <0>        -0.0335
     21 C16         0.2455    0.3141    3.9425 C.2       1 <0>        -0.0078
     22 C17         0.7868    1.5434    4.1442 C.2       1 <0>        -0.1109
     23 C18         2.1790    1.6724    4.3102 C.2       1 <0>         0.2882
     24 N5          2.9663    2.7229    4.5178 N.2       1 <0>        -0.5479
     25 C19         4.2271    2.3253    4.6082 C.2       1 <0>         0.2410
     26 N6          4.2901    1.0223    4.4635 N.2       1 <0>        -0.3464
     27 N7          2.9786    0.5657    4.2682 N.pl3     1 <0>        -0.2857
     28 C20         2.4471   -0.6691    4.0722 C.2       1 <0>         0.1305
     29 F1         -0.0101    0.0034   -2.3711 F         1 <0>        -0.1276
     30 H2          1.0042    1.8801    0.0026 H         1 <0>         0.0806
     31 H3         -0.5455    1.8639   -0.8728 H         1 <0>         0.0798
     32 H4         -0.5286    1.8543    0.9071 H         1 <0>         0.0847
     33 H5          0.0277   -2.6211   -2.1380 H         1 <0>         0.1503
     34 H6          0.0549   -3.8125    0.0398 H         1 <0>         0.1511
     35 H7          0.4326   -6.3962    6.1803 H         1 <0>         0.0730
     36 H8          0.0037   -4.6948    6.4938 H         1 <0>         0.0668
     37 H9         -1.4628   -6.3279    7.7325 H         1 <0>         0.0775
     38 H10        -2.3723   -5.2732    6.6231 H         1 <0>         0.0679
     39 H11        -1.4288   -8.1072    5.9928 H         1 <0>         0.0658
     40 H12        -3.0930   -7.6479    6.4250 H         1 <0>         0.0672
     41 H13        -2.8525   -7.8241    3.9714 H         1 <0>         0.0785
     42 H14        -3.1766   -6.1390    4.4466 H         1 <0>         0.0674
     43 H15        -1.3683   -6.1581    2.8080 H         1 <0>         0.0972
     44 H16        -0.4630   -7.3515    3.7742 H         1 <0>         0.0650
     45 H17        -0.8211    0.2037    3.8137 H         1 <0>         0.1509
     46 H18         0.1529    2.4172    4.1768 H         1 <0>         0.1598
     47 H19         5.0738    2.9745    4.7752 H         1 <0>         0.2266
     48 H20         3.0927   -1.5345    4.0458 H         1 <0>         0.1681
@<TRIPOS>BOND
     1    1    2 1
     2    1   30 1
     3    1   31 1
     4    1   32 1
     5    2    7 ar
     6    2    3 ar
     7    3    4 ar
     8    3   29 1
     9    4    5 ar
    10    4   33 1
    11    5    6 ar
    12    5   34 1
    13    6    7 ar
    14    6    8 1
    15    8   13 1
    16    8    9 2
    17    9   10 1
    18    9   20 1
    19   10   11 1
    20   10   12 1
    21   12   13 2
    22   12   14 1
    23   14   19 1
    24   14   15 1
    25   15   16 1
    26   15   35 1
    27   15   36 1
    28   16   17 1
    29   16   37 1
    30   16   38 1
    31   17   18 1
    32   17   39 1
    33   17   40 1
    34   18   19 1
    35   18   41 1
    36   18   42 1
    37   19   43 1
    38   19   44 1
    39   20   28 2
    40   20   21 1
    41   21   22 2
    42   21   45 1
    43   22   23 1
    44   22   46 1
    45   23   27 1
    46   23   24 2
    47   24   25 1
    48   25   26 2
    49   25   47 1
    50   26   27 1
    51   27   28 1
    52   28   48 1
@<TRIPOS>MOLECULE
CHEMBL481546__1
   48    52     0     0     0
SMALL
USER_CHARGES

@<TRIPOS>ATOM
      1 C1         -0.1717    1.6480    0.2227 C.3       1 <0>        -0.1080
      2 C2         -0.2331    0.1438    0.1561 C.ar      1 <0>         0.1233
      3 C3         -0.4064   -0.4791   -1.0683 C.ar      1 <0>         0.0419
      4 C4         -0.4622   -1.8676   -1.1262 C.ar      1 <0>        -0.0940
      5 C5         -0.3418   -2.5830    0.0502 C.ar      1 <0>        -0.1510
      6 C6         -0.1689   -1.8901    1.2517 C.ar      1 <0>         0.2075
      7 N1         -0.1158   -0.5611    1.2632 N.ar      1 <0>        -0.4407
      8 C7         -0.0393   -2.6380    2.5149 C.2       1 <0>         0.0017
      9 C8          0.6030   -2.2187    3.6641 C.2       1 <0>         0.1366
     10 N2          0.4865   -3.2000    4.5787 N.2       1 <0>        -0.5226
     11 H1         -1.0492   -4.4607    2.1827 H         1 <0>         0.4191
     12 C9         -0.1886   -4.2019    4.0671 C.2       1 <0>         0.5207
     13 N3         -0.5421   -3.8985    2.7890 N.pl3     1 <0>        -0.5860
     14 N4         -0.4964   -5.3774    4.7243 N.pl3     1 <0>        -0.5964
     15 C10        -1.2554   -6.4373    4.0467 C.3       1 <0>         0.1269
     16 C11        -0.4715   -7.7493    4.1517 C.3       1 <0>        -0.1367
     17 C12        -0.1640   -8.0387    5.6227 C.3       1 <0>        -0.1209
     18 C13         0.6996   -6.9129    6.1962 C.3       1 <0>        -0.1384
     19 C14        -0.0658   -5.5939    6.1123 C.3       1 <0>         0.1383
     20 C15         1.2960   -0.9230    3.8553 C.2       1 <0>        -0.0198
     21 C16         2.3882   -0.5761    3.0282 C.2       1 <0>        -0.0276
     22 C17         3.0158    0.6153    3.2126 C.2       1 <0>        -0.1075
     23 C18         2.5673    1.4847    4.2250 C.2       1 <0>         0.2853
     24 N5          2.9740    2.6836    4.6283 N.2       1 <0>        -0.5493
     25 C19         2.2178    3.0963    5.6352 C.2       1 <0>         0.2374
     26 N6          1.3117    2.1868    5.9080 N.2       1 <0>        -0.3437
     27 N7          1.5092    1.1266    5.0117 N.pl3     1 <0>        -0.2825
     28 C20         0.8768   -0.0611    4.8264 C.2       1 <0>         0.1438
     29 F1         -0.5207    0.2554   -2.1964 F         1 <0>        -0.1254
     30 H2          0.8618    1.9749    0.1080 H         1 <0>         0.0869
     31 H3         -0.7779    2.0722   -0.5777 H         1 <0>         0.0812
     32 H4         -0.5545    1.9850    1.1861 H         1 <0>         0.0830
     33 H5         -0.5971   -2.3755   -2.0697 H         1 <0>         0.1510
     34 H6         -0.3810   -3.6622    0.0412 H         1 <0>         0.1384
     35 H7         -2.2279   -6.5534    4.5251 H         1 <0>         0.0741
     36 H8         -1.3910   -6.1758    2.9972 H         1 <0>         0.0670
     37 H9         -1.0669   -8.5630    3.7376 H         1 <0>         0.0781
     38 H10         0.4617   -7.6611    3.5955 H         1 <0>         0.0680
     39 H11        -1.0967   -8.1023    6.1830 H         1 <0>         0.0662
     40 H12         0.3724   -8.9843    5.7023 H         1 <0>         0.0677
     41 H13         0.9377   -7.1312    7.2372 H         1 <0>         0.0792
     42 H14         1.6218   -6.8325    5.6207 H         1 <0>         0.0677
     43 H15         0.5832   -4.7760    6.4253 H         1 <0>         0.0983
     44 H16        -0.9391   -5.6397    6.7629 H         1 <0>         0.0663
     45 H17         2.7219   -1.2529    2.2556 H         1 <0>         0.1423
     46 H18         3.8519    0.8926    2.5878 H         1 <0>         0.1576
     47 H19         2.3303    4.0375    6.1528 H         1 <0>         0.2254
     48 H20         0.0391   -0.3266    5.4542 H         1 <0>         0.1697
@<TRIPOS>BOND
     1    1    2 1
     2    1   30 1
     3    1   31 1
     4    1   32 1
     5    2    7 ar
     6    2    3 ar
     7    3    4 ar
     8    3   29 1
     9    4    5 ar
    10    4   33 1
    11    5    6 ar
    12    5   34 1
    13    6    7 ar
    14    6    8 1
    15    8    9 2
    16    8   13 1
    17    9   10 1
    18    9   20 1
    19   10   12 2
    20   11   13 1
    21   12   14 1
    22   12   13 1
    23   14   19 1
    24   14   15 1
    25   15   16 1
    26   15   35 1
    27   15   36 1
    28   16   17 1
    29   16   37 1
    30   16   38 1
    31   17   18 1
    32   17   39 1
    33   17   40 1
    34   18   19 1
    35   18   41 1
    36   18   42 1
    37   19   43 1
    38   19   44 1
    39   20   28 2
    40   20   21 1
    41   21   22 2
    42   21   45 1
    43   22   23 1
    44   22   46 1
    45   23   27 1
    46   23   24 2
    47   24   25 1
    48   25   26 2
    49   25   47 1
    50   26   27 1
    51   27   28 1
    52   28   48 1
@<TRIPOS>MOLECULE
CHEMBL481546__2
   49    53     0     0     0
SMALL
USER_CHARGES

@<TRIPOS>ATOM
      1 C1         -0.0184    1.5028    0.0103 C.3       1 <0>        -0.1138
      2 C2          0.0021   -0.0041    0.0020 C.ar      1 <0>         0.1263
      3 C3          0.0056   -0.6807   -1.2062 C.ar      1 <0>         0.0793
      4 C4          0.0249   -2.0708   -1.2088 C.ar      1 <0>        -0.0934
      5 C5          0.0401   -2.7331    0.0052 C.ar      1 <0>        -0.1292
      6 C6          0.0355   -1.9878    1.1846 C.ar      1 <0>         0.1565
      7 N1          0.0218   -0.6602    1.1444 N.ar      1 <0>        -0.4275
      8 C7          0.0510   -2.6821    2.4912 C.2       1 <0>         0.1081
      9 C8          0.5157   -2.1641    3.6841 C.2       1 <0>         0.1525
     10 N2          0.3377   -3.1518    4.6322 N.pl3     1 <0>        -0.5504
     11 H1          0.5669   -3.0944    5.5730 H         1 <0>         0.4599
     12 C9         -0.2195   -4.2218    4.0004 C.cat     1 <0>         0.6076
     13 N3         -0.3916   -3.9336    2.7335 N.pl3     1 <0>        -0.5181
     14 N4         -0.5559   -5.4209    4.6017 N.pl3     1 <0>        -0.5711
     15 C10        -1.0463   -6.5493    3.7986 C.3       1 <0>         0.1109
     16 C11        -0.1880   -7.7811    4.1033 C.3       1 <0>        -0.1395
     17 C12        -0.1872   -8.0368    5.6122 C.3       1 <0>        -0.1280
     18 C13         0.4216   -6.8331    6.3350 C.3       1 <0>        -0.1410
     19 C14        -0.4240   -5.5925    6.0549 C.3       1 <0>         0.1129
     20 C15         1.0896   -0.8211    3.9020 C.2       1 <0>        -0.0913
     21 C16         0.2455    0.3141    3.9425 C.2       1 <0>        -0.0137
     22 C17         0.7868    1.5434    4.1442 C.2       1 <0>        -0.0940
     23 C18         2.1790    1.6724    4.3102 C.2       1 <0>         0.2942
     24 N5          2.9663    2.7229    4.5178 N.2       1 <0>        -0.5324
     25 C19         4.2271    2.3253    4.6082 C.2       1 <0>         0.2566
     26 N6          4.2901    1.0223    4.4635 N.2       1 <0>        -0.3342
     27 N7          2.9786    0.5657    4.2682 N.pl3     1 <0>        -0.2945
     28 C20         2.4471   -0.6691    4.0722 C.2       1 <0>         0.1697
     29 F1         -0.0101    0.0034   -2.3711 F         1 <0>        -0.1106
     30 H2          1.0042    1.8801    0.0026 H         1 <0>         0.0903
     31 H3         -0.5455    1.8639   -0.8728 H         1 <0>         0.0891
     32 H4         -0.5286    1.8543    0.9071 H         1 <0>         0.0917
     33 H5          0.0277   -2.6211   -2.1380 H         1 <0>         0.1633
     34 H6          0.0549   -3.8125    0.0398 H         1 <0>         0.1448
     35 H7         -2.0855   -6.7557    4.0547 H         1 <0>         0.1044
     36 H8         -0.9706   -6.3042    2.7393 H         1 <0>         0.0827
     37 H9         -0.6002   -8.6484    3.5876 H         1 <0>         0.0976
     38 H10         0.8328   -7.6063    3.7634 H         1 <0>         0.0756
     39 H11        -1.2107   -8.1870    5.9556 H         1 <0>         0.0760
     40 H12         0.4028   -8.9272    5.8293 H         1 <0>         0.0832
     41 H13         0.4433   -7.0256    7.4077 H         1 <0>         0.0978
     42 H14         1.4367   -6.6672    5.9741 H         1 <0>         0.0751
     43 H15         0.0622   -4.7163    6.4837 H         1 <0>         0.0836
     44 H16        -1.4113   -5.7191    6.4990 H         1 <0>         0.1037
     45 H17        -0.8211    0.2037    3.8137 H         1 <0>         0.1557
     46 H18         0.1529    2.4172    4.1768 H         1 <0>         0.1685
     47 H19         5.0738    2.9745    4.7752 H         1 <0>         0.2346
     48 H20         3.0927   -1.5345    4.0458 H         1 <0>         0.1738
     49 H21        -0.7756   -4.5294    2.0713 H         1 <0>         0.4570
@<TRIPOS>BOND
     1    1    2 1
     2    1   30 1
     3    1   31 1
     4    1   32 1
     5    2    7 ar
     6    2    3 ar
     7    3    4 ar
     8    3   29 1
     9    4    5 ar
    10    4   33 1
    11    5    6 ar
    12    5   34 1
    13    6    7 ar
    14    6    8 1
    15    8   13 1
    16    8    9 2
    17    9   10 1
    18    9   20 1
    19   10   11 1
    20   10   12 1
    21   12   13 2
    22   12   14 1
    23   13   49 1
    24   14   19 1
    25   14   15 1
    26   15   16 1
    27   15   35 1
    28   15   36 1
    29   16   17 1
    30   16   37 1
    31   16   38 1
    32   17   18 1
    33   17   39 1
    34   17   40 1
    35   18   19 1
    36   18   41 1
    37   18   42 1
    38   19   43 1
    39   19   44 1
    40   20   28 2
    41   20   21 1
    42   21   22 2
    43   21   45 1
    44   22   23 1
    45   22   46 1
    46   23   27 1
    47   23   24 2
    48   24   25 1
    49   25   26 2
    50   25   47 1
    51   26   27 1
    52   27   28 1
    53   28   48 1
@<TRIPOS>MOLECULE
CHEMBL575720
   61    65     0     0     0
SMALL
USER_CHARGES

@<TRIPOS>ATOM
      1 C1         -5.6289   -1.8968   -2.8748 C.3       1 <0>        -0.1165
      2 C2         -4.4557   -2.4589   -2.1141 C.ar      1 <0>        -0.0856
      3 C3         -3.1722   -2.3450   -2.6246 C.ar      1 <0>        -0.1552
      4 C4         -2.1179   -2.8767   -1.8909 C.ar      1 <0>         0.1129
      5 C5         -2.3906   -3.5035   -0.6709 C.ar      1 <0>         0.1430
      6 N1         -3.6359   -3.5886   -0.2222 N.ar      1 <0>        -0.4300
      7 C6         -4.6499   -3.0880   -0.8970 C.ar      1 <0>         0.0991
      8 C7         -6.0442   -3.2069   -0.3377 C.3       1 <0>        -0.1020
      9 C8         -1.2801   -4.0773    0.1263 C.ar      1 <0>         0.1693
     10 C9         -1.4239   -4.2269    1.5044 C.ar      1 <0>        -0.1326
     11 C10        -0.3787   -4.7645    2.2352 C.ar      1 <0>        -0.0805
     12 C11         0.7775   -5.1354    1.5631 C.ar      1 <0>        -0.1660
     13 C12         0.8523   -4.9589    0.1937 C.ar      1 <0>         0.1001
     14 N2         -0.1594   -4.4493   -0.4789 N.ar      1 <0>        -0.4534
     15 O1         -0.8435   -2.7892   -2.3518 O.3       1 <0>        -0.2179
     16 C13        -0.6416   -2.2051   -3.5603 C.ar      1 <0>         0.1676
     17 C14        -0.5457   -0.8186   -3.6765 C.ar      1 <0>        -0.2374
     18 C15        -0.3399   -0.2592   -4.9196 C.ar      1 <0>         0.1610
     19 N3         -0.2337   -1.0171   -5.9952 N.ar      1 <0>        -0.5230
     20 C16        -0.3189   -2.3382   -5.9292 C.ar      1 <0>         0.4057
     21 C17        -0.5196   -2.9746   -4.7112 C.ar      1 <0>        -0.2288
     22 N4         -0.2011   -3.0946   -7.0901 N.pl3     1 <0>        -0.6478
     23 C18        -0.1494   -2.4596   -8.3375 C.ar      1 <0>         0.1617
     24 C19        -0.7331   -1.2132   -8.5081 C.ar      1 <0>        -0.1230
     25 C20        -0.6804   -0.5881   -9.7401 C.ar      1 <0>        -0.0999
     26 C21        -0.0469   -1.2019  -10.8049 C.ar      1 <0>        -0.1380
     27 C22         0.5377   -2.4444  -10.6438 C.ar      1 <0>        -0.1036
     28 C23         0.4942   -3.0765   -9.4102 C.ar      1 <0>         0.1289
     29 N5          1.0904   -4.3318   -9.2433 N.pl3     1 <0>        -0.6772
     30 C24         0.3322   -5.5690   -9.4878 C.3       1 <0>         0.1066
     31 C25         1.1547   -6.4635  -10.4223 C.3       1 <0>         0.0465
     32 O2          2.4704   -6.6208   -9.8857 O.3       1 <0>        -0.3806
     33 C26         3.2113   -5.4022   -9.7857 C.3       1 <0>         0.0461
     34 C27         2.4957   -4.4533   -8.8241 C.3       1 <0>         0.1121
     35 H1         -5.7945   -0.8621   -2.5747 H         1 <0>         0.0805
     36 H2         -5.4211   -1.9362   -3.9441 H         1 <0>         0.0709
     37 H3         -6.5196   -2.4856   -2.6559 H         1 <0>         0.0789
     38 H4         -2.9953   -1.8550   -3.5707 H         1 <0>         0.1421
     39 H5         -6.4976   -4.1348   -0.6863 H         1 <0>         0.0791
     40 H6         -5.9996   -3.2111    0.7514 H         1 <0>         0.0790
     41 H7         -6.6438   -2.3609   -0.6735 H         1 <0>         0.0788
     42 H8         -2.3380   -3.9271    1.9953 H         1 <0>         0.1420
     43 H9         -0.4608   -4.8922    3.3044 H         1 <0>         0.1380
     44 H10         1.6112   -5.5575    2.1047 H         1 <0>         0.1369
     45 H11         1.7508   -5.2462   -0.3321 H         1 <0>         0.1583
     46 H12        -0.6320   -0.1901   -2.8024 H         1 <0>         0.1409
     47 H13        -0.2649    0.8139   -5.0148 H         1 <0>         0.1675
     48 H14        -0.5840   -4.0514   -4.6598 H         1 <0>         0.1410
     49 H15        -1.2291   -0.7311   -7.6787 H         1 <0>         0.1452
     50 H16        -1.1358    0.3824   -9.8713 H         1 <0>         0.1237
     51 H17        -0.0089   -0.7094  -11.7653 H         1 <0>         0.1216
     52 H18         1.0314   -2.9211  -11.4777 H         1 <0>         0.1209
     53 H19         0.1584   -6.0857   -8.5439 H         1 <0>         0.0562
     54 H20        -0.6222   -5.3282   -9.9562 H         1 <0>         0.0795
     55 H21         0.6766   -7.4395  -10.5061 H         1 <0>         0.0991
     56 H22         1.2162   -6.0016  -11.4076 H         1 <0>         0.0532
     57 H23         4.2128   -5.6147   -9.4116 H         1 <0>         0.0994
     58 H24         3.2803   -4.9364  -10.7688 H         1 <0>         0.0525
     59 H25         2.9734   -3.4740   -8.8532 H         1 <0>         0.0783
     60 H26         2.5435   -4.8557   -7.8123 H         1 <0>         0.0559
     61 H27        -0.1549   -4.0620   -7.0361 H         1 <0>         0.4193
@<TRIPOS>BOND
     1    1    2 1
     2    1   35 1
     3    1   36 1
     4    1   37 1
     5    2    7 ar
     6    2    3 ar
     7    3    4 ar
     8    3   38 1
     9    4    5 ar
    10    4   15 1
    11    5    6 ar
    12    5    9 1
    13    6    7 ar
    14    7    8 1
    15    8   39 1
    16    8   40 1
    17    8   41 1
    18    9   14 ar
    19    9   10 ar
    20   10   11 ar
    21   10   42 1
    22   11   12 ar
    23   11   43 1
    24   12   13 ar
    25   12   44 1
    26   13   14 ar
    27   13   45 1
    28   15   16 1
    29   16   17 ar
    30   16   21 ar
    31   17   46 1
    32   17   18 ar
    33   18   47 1
    34   18   19 ar
    35   19   20 ar
    36   20   22 1
    37   20   21 ar
    38   21   48 1
    39   22   23 1
    40   22   61 1
    41   23   28 ar
    42   23   24 ar
    43   24   25 ar
    44   24   49 1
    45   25   26 ar
    46   25   50 1
    47   26   27 ar
    48   26   51 1
    49   27   28 ar
    50   27   52 1
    51   28   29 1
    52   29   34 1
    53   29   30 1
    54   30   31 1
    55   30   53 1
    56   30   54 1
    57   31   32 1
    58   31   55 1
    59   31   56 1
    60   32   33 1
    61   33   34 1
    62   33   57 1
    63   33   58 1
    64   34   59 1
    65   34   60 1
@<TRIPOS>MOLECULE
CHEMBL575720__1
   62    66     0     0     0
SMALL
USER_CHARGES

@<TRIPOS>ATOM
      1 C1         -5.2103   -1.8508   -2.7590 C.3       1 <0>        -0.1199
      2 C2         -4.0240   -2.3881   -2.0007 C.ar      1 <0>        -0.0852
      3 C3         -2.7533   -2.3176   -2.5496 C.ar      1 <0>        -0.1552
      4 C4         -1.6862   -2.8244   -1.8167 C.ar      1 <0>         0.0888
      5 C5         -1.9337   -3.3836   -0.5590 C.ar      1 <0>         0.1728
      6 N1         -3.1675   -3.4290   -0.0744 N.ar      1 <0>        -0.4257
      7 C6         -4.1931   -2.9507   -0.7479 C.ar      1 <0>         0.1229
      8 C7         -5.5734   -3.0223   -0.1471 C.3       1 <0>        -0.1109
      9 C8         -0.8092   -3.9298    0.2379 C.ar      1 <0>         0.1526
     10 C9         -0.9182   -4.0059    1.6253 C.ar      1 <0>        -0.1247
     11 C10         0.1397   -4.5186    2.3557 C.ar      1 <0>        -0.0771
     12 C11         1.2733   -4.9390    1.6742 C.ar      1 <0>        -0.1554
     13 C12         1.3137   -4.8346    0.2959 C.ar      1 <0>         0.0990
     14 N2          0.2906   -4.3474   -0.3759 N.ar      1 <0>        -0.4596
     15 O1         -0.4235   -2.7776   -2.3144 O.3       1 <0>        -0.2120
     16 C13        -0.2393   -2.2077   -3.5325 C.ar      1 <0>         0.2455
     17 C14         0.0344   -0.8452   -3.6497 C.ar      1 <0>        -0.1803
     18 C15         0.2163   -0.2998   -4.9027 C.ar      1 <0>         0.1688
     19 N3          0.1342   -1.0487   -5.9868 N.ar      1 <0>        -0.4993
     20 C16        -0.1240   -2.3470   -5.9201 C.ar      1 <0>         0.4476
     21 C17        -0.3134   -2.9690   -4.6929 C.ar      1 <0>        -0.2036
     22 N4         -0.2012   -3.0946   -7.0901 N.pl3     1 <0>        -0.6305
     23 C18        -0.9180   -4.2978   -7.1064 C.ar      1 <0>         0.1206
     24 C19        -1.9524   -4.5032   -6.2058 C.ar      1 <0>        -0.1493
     25 C20        -2.6590   -5.6914   -6.2240 C.ar      1 <0>        -0.0852
     26 C21        -2.3378   -6.6776   -7.1383 C.ar      1 <0>        -0.1051
     27 C22        -1.3081   -6.4814   -8.0398 C.ar      1 <0>        -0.0915
     28 C23        -0.5974   -5.2905   -8.0322 C.ar      1 <0>         0.1649
     29 N5          0.4416   -5.0874   -8.9478 N.pl3     1 <0>        -0.6852
     30 C24         1.8223   -5.4823   -8.6265 C.3       1 <0>         0.1089
     31 C25         2.3670   -6.3232   -9.7868 C.3       1 <0>         0.0435
     32 O2          2.1790   -5.6118  -11.0125 O.3       1 <0>        -0.3763
     33 C26         0.8100   -5.3630  -11.3408 C.3       1 <0>         0.0439
     34 C27         0.1846   -4.4781  -10.2624 C.3       1 <0>         0.1048
     35 H1         -5.3557   -0.7999   -2.5091 H         1 <0>         0.0845
     36 H2         -5.0314   -1.9482   -3.8298 H         1 <0>         0.0706
     37 H3         -6.1018   -2.4158   -2.4867 H         1 <0>         0.0850
     38 H4         -2.5958   -1.8796   -3.5241 H         1 <0>         0.1349
     39 H5         -6.0467   -3.9610   -0.4351 H         1 <0>         0.0864
     40 H6         -5.5000   -2.9706    0.9392 H         1 <0>         0.0854
     41 H7         -6.1718   -2.1870   -0.5110 H         1 <0>         0.0837
     42 H8         -1.8153   -3.6692    2.1234 H         1 <0>         0.1446
     43 H9          0.0845   -4.5897    3.4319 H         1 <0>         0.1426
     44 H10         2.1160   -5.3434    2.2152 H         1 <0>         0.1412
     45 H11         2.1945   -5.1605   -0.2373 H         1 <0>         0.1606
     46 H12         0.1028   -0.2242   -2.7687 H         1 <0>         0.1903
     47 H13         0.4285    0.7547   -4.9988 H         1 <0>         0.2190
     48 H14        -0.5190   -4.0280   -4.6413 H         1 <0>         0.1934
     49 H15         0.2661   -0.6377   -6.8554 H         1 <0>         0.4461
     50 H16        -2.2058   -3.7352   -5.4901 H         1 <0>         0.1285
     51 H17        -3.4640   -5.8498   -5.5217 H         1 <0>         0.1384
     52 H18        -2.8926   -7.6041   -7.1481 H         1 <0>         0.1385
     53 H19        -1.0596   -7.2540   -8.7524 H         1 <0>         0.1375
     54 H20         2.4381   -4.5922   -8.4975 H         1 <0>         0.0587
     55 H21         1.8316   -6.0719   -7.7098 H         1 <0>         0.0819
     56 H22         3.4299   -6.5098   -9.6335 H         1 <0>         0.1043
     57 H23         1.8326   -7.2722   -9.8309 H         1 <0>         0.0572
     58 H24         0.7528   -4.8590  -12.3055 H         1 <0>         0.1048
     59 H25         0.2699   -6.3085  -11.3906 H         1 <0>         0.0570
     60 H26        -0.8901   -4.4031  -10.4284 H         1 <0>         0.0830
     61 H27         0.6327   -3.4853  -10.3008 H         1 <0>         0.0585
     62 H28         0.2415   -2.7829   -7.8950 H         1 <0>         0.4306
@<TRIPOS>BOND
     1    1    2 1
     2    1   35 1
     3    1   36 1
     4    1   37 1
     5    2    7 ar
     6    2    3 ar
     7    3    4 ar
     8    3   38 1
     9    4    5 ar
    10    4   15 1
    11    5    6 ar
    12    5    9 1
    13    6    7 ar
    14    7    8 1
    15    8   39 1
    16    8   40 1
    17    8   41 1
    18    9   14 ar
    19    9   10 ar
    20   10   11 ar
    21   10   42 1
    22   11   12 ar
    23   11   43 1
    24   12   13 ar
    25   12   44 1
    26   13   14 ar
    27   13   45 1
    28   15   16 1
    29   16   17 ar
    30   16   21 ar
    31   17   46 1
    32   17   18 ar
    33   18   47 1
    34   18   19 ar
    35   19   49 1
    36   19   20 ar
    37   20   22 1
    38   20   21 ar
    39   21   48 1
    40   22   23 1
    41   22   62 1
    42   23   28 ar
    43   23   24 ar
    44   24   25 ar
    45   24   50 1
    46   25   26 ar
    47   25   51 1
    48   26   27 ar
    49   26   52 1
    50   27   28 ar
    51   27   53 1
    52   28   29 1
    53   29   34 1
    54   29   30 1
    55   30   31 1
    56   30   54 1
    57   30   55 1
    58   31   32 1
    59   31   56 1
    60   31   57 1
    61   32   33 1
    62   33   34 1
    63   33   58 1
    64   33   59 1
    65   34   60 1
    66   34   61 1
@<TRIPOS>MOLECULE
CHEMBL575720__2
   61    65     0     0     0
SMALL
USER_CHARGES

@<TRIPOS>ATOM
      1 C1          4.0588   -4.8044   -3.5705 C.3       1 <0>        -0.1161
      2 C2          2.9021   -4.6285   -2.6207 C.ar      1 <0>        -0.0873
      3 C3          1.8721   -3.7536   -2.9281 C.ar      1 <0>        -0.1554
      4 C4          0.8236   -3.6212   -2.0248 C.ar      1 <0>         0.1110
      5 C5          0.8474   -4.3723   -0.8454 C.ar      1 <0>         0.1456
      6 N1          1.8553   -5.1971   -0.5937 N.ar      1 <0>        -0.4306
      7 C6          2.8563   -5.3433   -1.4368 C.ar      1 <0>         0.1005
      8 C7          3.9725   -6.2996   -1.1041 C.3       1 <0>        -0.1025
      9 C8         -0.2612   -4.2454    0.1306 C.ar      1 <0>         0.1684
     10 C9         -0.5346   -5.2945    1.0064 C.ar      1 <0>        -0.1327
     11 C10        -1.5725   -5.1611    1.9123 C.ar      1 <0>        -0.0810
     12 C11        -2.3039   -3.9817    1.9128 C.ar      1 <0>        -0.1659
     13 C12        -1.9779   -2.9811    1.0157 C.ar      1 <0>         0.1008
     14 N2         -0.9817   -3.1317    0.1670 N.ar      1 <0>        -0.4522
     15 O1         -0.2071   -2.7757   -2.2835 O.3       1 <0>        -0.2137
     16 C13        -0.1484   -2.0273   -3.4118 C.2       1 <0>         0.1688
     17 C14        -0.2332   -2.6418   -4.6793 C.2       1 <0>        -0.2567
     18 C15        -0.1746   -1.8960   -5.8004 C.2       1 <0>         0.1532
     19 N3         -0.0332   -0.5422   -5.7340 N.pl3     1 <0>        -0.6290
     20 C16         0.0526    0.0939   -4.5186 C.2       1 <0>         0.4279
     21 C17        -0.0109   -0.6577   -3.3321 C.2       1 <0>        -0.1569
     22 N4          0.1902    1.4134   -4.4652 N.2       1 <0>        -0.5530
     23 C18         0.1120    2.1554   -5.6100 C.ar      1 <0>         0.1173
     24 C19        -0.9675    1.9920   -6.4800 C.ar      1 <0>        -0.1878
     25 C20        -1.0408    2.7452   -7.6349 C.ar      1 <0>        -0.0966
     26 C21        -0.0487    3.6619   -7.9340 C.ar      1 <0>        -0.1395
     27 C22         1.0267    3.8334   -7.0796 C.ar      1 <0>        -0.1031
     28 C23         1.1133    3.0903   -5.9148 C.ar      1 <0>         0.1597
     29 N5          2.1978    3.2668   -5.0474 N.pl3     1 <0>        -0.6654
     30 C24         3.4290    2.4762   -5.2033 C.3       1 <0>         0.1168
     31 C25         4.6231    3.4375   -5.2114 C.3       1 <0>         0.0472
     32 O2          4.5536    4.2841   -4.0615 O.3       1 <0>        -0.3808
     33 C26         3.3972    5.1237   -4.0220 C.3       1 <0>         0.0458
     34 C27         2.1424    4.2528   -3.9564 C.3       1 <0>         0.1189
     35 H1          3.8314   -5.6035   -4.2760 H         1 <0>         0.0797
     36 H2          4.2260   -3.8753   -4.1154 H         1 <0>         0.0709
     37 H3          4.9557   -5.0615   -3.0070 H         1 <0>         0.0787
     38 H4          1.8838   -3.1876   -3.8479 H         1 <0>         0.1466
     39 H5          4.7480   -5.7734   -0.5474 H         1 <0>         0.0794
     40 H6          3.5820   -7.1174   -0.4985 H         1 <0>         0.0789
     41 H7          4.3950   -6.6997   -2.0258 H         1 <0>         0.0785
     42 H8          0.0549   -6.1990    0.9783 H         1 <0>         0.1417
     43 H9         -1.8081   -5.9572    2.6030 H         1 <0>         0.1376
     44 H10        -3.1201   -3.8467    2.6070 H         1 <0>         0.1367
     45 H11        -2.5454   -2.0623    1.0133 H         1 <0>         0.1591
     46 H12        -0.3451   -3.7136   -4.7513 H         1 <0>         0.1490
     47 H13        -0.2403   -2.3779   -6.7647 H         1 <0>         0.1695
     48 H14         0.0516   -0.1691   -2.3710 H         1 <0>         0.1606
     49 H15        -1.7438    1.2772   -6.2503 H         1 <0>         0.1174
     50 H16        -1.8759    2.6180   -8.3077 H         1 <0>         0.1218
     51 H17        -0.1136    4.2468   -8.8396 H         1 <0>         0.1225
     52 H18         1.7975    4.5507   -7.3202 H         1 <0>         0.1217
     53 H19         3.5251    1.7785   -4.3714 H         1 <0>         0.0547
     54 H20         3.3949    1.9252   -6.1432 H         1 <0>         0.0691
     55 H21         5.5508    2.8659   -5.1871 H         1 <0>         0.0967
     56 H22         4.5937    4.0470   -6.1146 H         1 <0>         0.0506
     57 H23         3.4430    5.7653   -3.1419 H         1 <0>         0.0988
     58 H24         3.3633    5.7394   -4.9208 H         1 <0>         0.0497
     59 H25         1.2568    4.8777   -4.0710 H         1 <0>         0.0748
     60 H26         2.1068    3.7370   -2.9969 H         1 <0>         0.0592
     61 H27         0.0077   -0.0227   -6.5521 H         1 <0>         0.4202
@<TRIPOS>BOND
     1    1    2 1
     2    1   35 1
     3    1   36 1
     4    1   37 1
     5    2    7 ar
     6    2    3 ar
     7    3    4 ar
     8    3   38 1
     9    4    5 ar
    10    4   15 1
    11    5    6 ar
    12    5    9 1
    13    6    7 ar
    14    7    8 1
    15    8   39 1
    16    8   40 1
    17    8   41 1
    18    9   14 ar
    19    9   10 ar
    20   10   11 ar
    21   10   42 1
    22   11   12 ar
    23   11   43 1
    24   12   13 ar
    25   12   44 1
    26   13   14 ar
    27   13   45 1
    28   15   16 1
    29   16   17 1
    30   16   21 2
    31   17   46 1
    32   17   18 2
    33   18   47 1
    34   18   19 1
    35   19   61 1
    36   19   20 1
    37   20   22 2
    38   20   21 1
    39   21   48 1
    40   22   23 1
    41   23   28 ar
    42   23   24 ar
    43   24   25 ar
    44   24   49 1
    45   25   26 ar
    46   25   50 1
    47   26   27 ar
    48   26   51 1
    49   27   28 ar
    50   27   52 1
    51   28   29 1
    52   29   34 1
    53   29   30 1
    54   30   31 1
    55   30   53 1
    56   30   54 1
    57   31   32 1
    58   31   55 1
    59   31   56 1
    60   32   33 1
    61   33   34 1
    62   33   57 1
    63   33   58 1
    64   34   59 1
    65   34   60 1
@<TRIPOS>MOLECULE
CHEMBL575720__3
   61    65     0     0     0
SMALL
USER_CHARGES

@<TRIPOS>ATOM
      1 C1          5.6625   -3.5305   -3.4381 C.3       1 <0>        -0.1154
      2 C2          4.4575   -3.7020   -2.5495 C.ar      1 <0>        -0.0872
      3 C3          3.2614   -3.0772   -2.8655 C.ar      1 <0>        -0.1532
      4 C4          2.1738   -3.2619   -2.0194 C.ar      1 <0>         0.1107
      5 C5          2.3268   -4.0673   -0.8865 C.ar      1 <0>         0.1452
      6 N1          3.4917   -4.6449   -0.6244 N.ar      1 <0>        -0.4306
      7 C6          4.5340   -4.4892   -1.4141 C.ar      1 <0>         0.1006
      8 C7          5.8322   -5.1742   -1.0726 C.3       1 <0>        -0.1022
      9 C8          1.1790   -4.2767    0.0282 C.ar      1 <0>         0.1682
     10 C9          1.1287   -5.4200    0.8236 C.ar      1 <0>        -0.1326
     11 C10         0.0511   -5.6013    1.6730 C.ar      1 <0>        -0.0808
     12 C11        -0.9421   -4.6324    1.6992 C.ar      1 <0>        -0.1656
     13 C12        -0.8282   -3.5221    0.8828 C.ar      1 <0>         0.1005
     14 N2          0.2108   -3.3714    0.0870 N.ar      1 <0>        -0.4520
     15 O1          0.9820   -2.6691   -2.2886 O.3       1 <0>        -0.2150
     16 C13         0.8593   -1.9871   -3.4533 C.2       1 <0>         0.1769
     17 C14         0.8916   -2.6721   -4.6866 C.2       1 <0>        -0.2638
     18 C15         0.7693   -1.9922   -5.8440 C.2       1 <0>         0.1656
     19 N3          0.6130   -0.6385   -5.8474 N.pl3     1 <0>        -0.5869
     20 C16         0.5761    0.0649   -4.6672 C.2       1 <0>         0.4252
     21 C17         0.6959   -0.6181   -3.4442 C.2       1 <0>        -0.2242
     22 N4          0.4234    1.3838   -4.6819 N.2       1 <0>        -0.5728
     23 C18         0.5237    2.0962   -3.5201 C.ar      1 <0>         0.1381
     24 C19         1.6046    1.8897   -2.6612 C.ar      1 <0>        -0.1661
     25 C20         1.7001    2.6132   -1.4890 C.ar      1 <0>        -0.1005
     26 C21         0.7290    3.5424   -1.1616 C.ar      1 <0>        -0.1384
     27 C22        -0.3477    3.7566   -2.0048 C.ar      1 <0>        -0.1068
     28 C23        -0.4564    3.0437   -3.1866 C.ar      1 <0>         0.1585
     29 N5         -1.5420    3.2633   -4.0426 N.pl3     1 <0>        -0.6646
     30 C24        -2.7884    2.4946   -3.8979 C.3       1 <0>         0.1172
     31 C25        -3.9623    3.4796   -3.8592 C.3       1 <0>         0.0468
     32 O2         -3.8821    4.3522   -4.9888 O.3       1 <0>        -0.3822
     33 C26        -2.7088    5.1687   -5.0154 C.3       1 <0>         0.0453
     34 C27        -1.4727    4.2741   -5.1099 C.3       1 <0>         0.1204
     35 H1          5.7171   -4.3620   -4.1407 H         1 <0>         0.0802
     36 H2          5.5772   -2.5941   -3.9893 H         1 <0>         0.0702
     37 H3          6.5648   -3.5114   -2.8269 H         1 <0>         0.0786
     38 H4          3.1763   -2.4610   -3.7484 H         1 <0>         0.1443
     39 H5          6.4333   -4.5197   -0.4413 H         1 <0>         0.0794
     40 H6          5.6242   -6.1021   -0.5398 H         1 <0>         0.0789
     41 H7          6.3781   -5.3962   -1.9895 H         1 <0>         0.0784
     42 H8          1.9193   -6.1543    0.7776 H         1 <0>         0.1418
     43 H9         -0.0156   -6.4774    2.3010 H         1 <0>         0.1378
     44 H10        -1.7961   -4.7446    2.3508 H         1 <0>         0.1368
     45 H11        -1.5996   -2.7665    0.9006 H         1 <0>         0.1583
     46 H12         1.0151   -3.7449   -4.7033 H         1 <0>         0.1489
     47 H13         0.7960   -2.5276   -6.7815 H         1 <0>         0.1766
     48 H14         0.6646   -0.0770   -2.5100 H         1 <0>         0.1591
     49 H15         2.3647    1.1649   -2.9129 H         1 <0>         0.1165
     50 H16         2.5364    2.4527   -0.8247 H         1 <0>         0.1195
     51 H17         0.8112    4.1038   -0.2426 H         1 <0>         0.1206
     52 H18        -1.1021    4.4835   -1.7422 H         1 <0>         0.1201
     53 H19        -2.9037    1.8192   -4.7457 H         1 <0>         0.0520
     54 H20        -2.7601    1.9204   -2.9718 H         1 <0>         0.0722
     55 H21        -4.9018    2.9279   -3.8913 H         1 <0>         0.0966
     56 H22        -3.9150    4.0664   -2.9418 H         1 <0>         0.0512
     57 H23        -2.7465    5.8321   -5.8795 H         1 <0>         0.0975
     58 H24        -2.6570    5.7616   -4.1023 H         1 <0>         0.0501
     59 H25        -0.5737    4.8778   -4.9859 H         1 <0>         0.0743
     60 H26        -1.4533    3.7810   -6.0818 H         1 <0>         0.0556
     61 H27         0.5274   -0.1669   -6.6907 H         1 <0>         0.4258
@<TRIPOS>BOND
     1    1    2 1
     2    1   35 1
     3    1   36 1
     4    1   37 1
     5    2    7 ar
     6    2    3 ar
     7    3    4 ar
     8    3   38 1
     9    4    5 ar
    10    4   15 1
    11    5    6 ar
    12    5    9 1
    13    6    7 ar
    14    7    8 1
    15    8   39 1
    16    8   40 1
    17    8   41 1
    18    9   14 ar
    19    9   10 ar
    20   10   11 ar
    21   10   42 1
    22   11   12 ar
    23   11   43 1
    24   12   13 ar
    25   12   44 1
    26   13   14 ar
    27   13   45 1
    28   15   16 1
    29   16   17 1
    30   16   21 2
    31   17   46 1
    32   17   18 2
    33   18   47 1
    34   18   19 1
    35   19   61 1
    36   19   20 1
    37   20   22 2
    38   20   21 1
    39   21   48 1
    40   22   23 1
    41   23   28 ar
    42   23   24 ar
    43   24   25 ar
    44   24   49 1
    45   25   26 ar
    46   25   50 1
    47   26   27 ar
    48   26   51 1
    49   27   28 ar
    50   27   52 1
    51   28   29 1
    52   29   34 1
    53   29   30 1
    54   30   31 1
    55   30   53 1
    56   30   54 1
    57   31   32 1
    58   31   55 1
    59   31   56 1
    60   32   33 1
    61   33   34 1
    62   33   57 1
    63   33   58 1
    64   34   59 1
    65   34   60 1
@<TRIPOS>MOLECULE
CHEMBL406411
   66    71     0     0     0
SMALL
USER_CHARGES

@<TRIPOS>ATOM
      1 C1         -0.4808   -0.6938    3.2790 C.3       1 <0>        -0.0537
      2 N1         -0.4468   -1.1771    1.8922 N.4       1 <0>        -0.3894
      3 C2          0.1054   -2.5481    1.8565 C.3       1 <0>        -0.0108
      4 C3          0.9342   -2.6068    0.5491 C.3       1 <0>        -0.1443
      5 C4          1.5454   -1.1817    0.5012 C.3       1 <0>        -0.1384
      6 C5          0.4193   -0.3009    1.0823 C.3       1 <0>         0.0230
      7 C6          1.0193    0.7965    1.9637 C.3       1 <0>        -0.1389
      8 C7          1.8525    1.7456    1.1002 C.3       1 <0>        -0.1200
      9 C8          2.3479    2.9124    1.9570 C.3       1 <0>         0.0592
     10 O1          3.1262    3.7989    1.1505 O.3       1 <0>        -0.3114
     11 C9          3.6446    4.8950    1.7628 C.ar      1 <0>         0.1363
     12 C10         3.4065    5.1031    3.1248 C.ar      1 <0>        -0.2004
     13 C11         3.9148    6.1934    3.7615 C.ar      1 <0>        -0.0406
     14 C12         4.6864    7.1211    3.0485 C.ar      1 <0>        -0.1158
     15 C13         5.2306    8.2667    3.6826 C.ar      1 <0>         0.0931
     16 C14         5.9853    9.1403    2.9084 C.ar      1 <0>        -0.1580
     17 C15         6.1804    8.8699    1.5608 C.ar      1 <0>         0.1535
     18 N2          5.6704    7.8057    0.9864 N.ar      1 <0>        -0.4865
     19 C16         4.9342    6.9211    1.6689 C.ar      1 <0>         0.1690
     20 C17         4.4028    5.7849    1.0368 C.ar      1 <0>        -0.1358
     21 C18         5.0021    8.5242    5.1216 C.2       1 <0>        -0.1779
     22 C19         5.7860    8.1042    6.1617 C.2       1 <0>         0.0875
     23 N3          5.2409    8.5475    7.3077 N.pl3     1 <0>        -0.3835
     24 N4          4.0715    9.2685    7.0106 N.2       1 <0>        -0.2443
     25 C20         3.8978    9.2824    5.7090 C.2       1 <0>         0.1414
     26 C21         2.7904    9.9389    4.9744 C.ar      1 <0>         0.1963
     27 C22         1.5751   10.1693    5.6174 C.ar      1 <0>        -0.1413
     28 C23         0.5507   10.7831    4.9186 C.ar      1 <0>        -0.0748
     29 C24         0.7746   11.1473    3.5980 C.ar      1 <0>        -0.1628
     30 C25         2.0046   10.8887    3.0224 C.ar      1 <0>         0.1055
     31 N5          2.9655   10.3075    3.7118 N.ar      1 <0>        -0.4563
     32 C26         6.0487    8.1321    8.4688 C.3       1 <0>         0.1275
     33 C27         6.9528    6.9905    7.9579 C.3       1 <0>        -0.1312
     34 C28         7.0471    7.3158    6.4502 C.3       1 <0>        -0.0691
     35 H1         -0.9073    0.3090    3.3039 H         1 <0>         0.1251
     36 H2         -1.0929   -1.3640    3.8825 H         1 <0>         0.1227
     37 H3          0.5326   -0.6677    3.6795 H         1 <0>         0.1247
     38 H4          0.7468   -2.7214    2.7206 H         1 <0>         0.1318
     39 H5         -0.7007   -3.2813    1.8280 H         1 <0>         0.1354
     40 H6          1.7150   -3.3645    0.6155 H         1 <0>         0.1175
     41 H7          0.2915   -2.7852   -0.3130 H         1 <0>         0.0994
     42 H8          2.4390   -1.1245    1.1227 H         1 <0>         0.1008
     43 H9          1.7696   -0.8928   -0.5256 H         1 <0>         0.1148
     44 H10        -0.1579    0.1452    0.2724 H         1 <0>         0.1417
     45 H11         0.2167    1.3543    2.4462 H         1 <0>         0.0930
     46 H12         1.6556    0.3442    2.7244 H         1 <0>         0.0926
     47 H13         2.7071    1.2077    0.6898 H         1 <0>         0.0878
     48 H14         1.2387    2.1285    0.2849 H         1 <0>         0.0863
     49 H15         1.4933    3.4503    2.3673 H         1 <0>         0.0642
     50 H16         2.9618    2.5295    2.7723 H         1 <0>         0.0647
     51 H17         2.8122    4.3908    3.6778 H         1 <0>         0.1263
     52 H18         3.7238    6.3436    4.8138 H         1 <0>         0.1267
     53 H19         6.4172   10.0248    3.3528 H         1 <0>         0.1357
     54 H20         6.7683    9.5550    0.9680 H         1 <0>         0.1617
     55 H21         4.5850    5.6127   -0.0137 H         1 <0>         0.1426
     56 H22         1.4351    9.8725    6.6463 H         1 <0>         0.1390
     57 H23        -0.4020   10.9743    5.3900 H         1 <0>         0.1401
     58 H24        -0.0049   11.6278    3.0254 H         1 <0>         0.1398
     59 H25         2.1817   11.1705    1.9950 H         1 <0>         0.1611
     60 H26         6.6568    8.9649    8.8221 H         1 <0>         0.0956
     61 H27         5.4017    7.7713    9.2683 H         1 <0>         0.0970
     62 H28         7.9353    7.0305    8.4281 H         1 <0>         0.1080
     63 H29         6.4840    6.0197    8.1188 H         1 <0>         0.0890
     64 H30         7.0665    6.3983    5.8621 H         1 <0>         0.0971
     65 H31         7.9305    7.9205    6.2451 H         1 <0>         0.1022
     66 H32        -1.3805   -1.1792    1.5096 H         1 <0>         0.4284
@<TRIPOS>BOND
     1    1    2 1
     2    1   35 1
     3    1   36 1
     4    1   37 1
     5    2    6 1
     6    2    3 1
     7    2   66 1
     8    3    4 1
     9    3   38 1
    10    3   39 1
    11    4    5 1
    12    4   40 1
    13    4   41 1
    14    5    6 1
    15    5   42 1
    16    5   43 1
    17    6    7 1
    18    6   44 1
    19    7    8 1
    20    7   45 1
    21    7   46 1
    22    8    9 1
    23    8   47 1
    24    8   48 1
    25    9   10 1
    26    9   49 1
    27    9   50 1
    28   10   11 1
    29   11   20 ar
    30   11   12 ar
    31   12   13 ar
    32   12   51 1
    33   13   14 ar
    34   13   52 1
    35   14   19 ar
    36   14   15 ar
    37   15   16 ar
    38   15   21 1
    39   16   17 ar
    40   16   53 1
    41   17   18 ar
    42   17   54 1
    43   18   19 ar
    44   19   20 ar
    45   20   55 1
    46   21   25 1
    47   21   22 2
    48   22   34 1
    49   22   23 1
    50   23   24 1
    51   23   32 1
    52   24   25 2
    53   25   26 1
    54   26   31 ar
    55   26   27 ar
    56   27   28 ar
    57   27   56 1
    58   28   29 ar
    59   28   57 1
    60   29   30 ar
    61   29   58 1
    62   30   31 ar
    63   30   59 1
    64   32   33 1
    65   32   60 1
    66   32   61 1
    67   33   34 1
    68   33   62 1
    69   33   63 1
    70   34   64 1
    71   34   65 1
