@<TRIPOS>MOLECULE
ZINC00519932
   37    41     0     0     0
SMALL
USER_CHARGES
phenylBLAHdione
@<TRIPOS>ATOM
      1 C1          3.7160    1.0448   -5.9899 C.ar      1 <0>        -0.1135
      2 C2          2.4079    0.8110   -5.6073 C.ar      1 <0>        -0.1041
      3 C3          2.0767    0.7638   -4.2673 C.ar      1 <0>        -0.0916
      4 C4          3.0589    0.9520   -3.3038 C.ar      1 <0>         0.1188
      5 C5          4.3706    1.1923   -3.6914 C.ar      1 <0>        -0.1254
      6 C6          4.6963    1.2326   -5.0329 C.ar      1 <0>        -0.1045
      7 N1          2.7265    0.9053   -1.9454 N.am      1 <0>        -0.3543
      8 C7          1.6793    1.6328   -1.5269 C.2       1 <0>         0.5406
      9 O1          1.0522    2.3043   -2.3187 O.2       1 <0>        -0.5008
     10 C8          1.2807    1.6149   -0.0685 C.3       1 <0>        -0.0980
     11 H1          1.2146    2.6273    0.3298 H         1 <0>         0.1296
     12 C9         -0.1239    0.9224   -0.0365 C.3       1 <0>        -0.0272
     13 H2         -0.8187    1.1890   -0.8329 H         1 <0>         0.1183
     14 C10        -0.5897    1.1438    1.4139 C.2       1 <0>        -0.1554
     15 C11         0.1458    0.3852    2.2069 C.2       1 <0>        -0.1542
     16 C12         1.1507   -0.3920    1.3374 C.3       1 <0>        -0.0271
     17 H3          1.5898   -1.2944    1.7629 H         1 <0>         0.1191
     18 C13         2.1483    0.7205    0.8674 C.3       1 <0>        -0.1019
     19 H4          2.5030    1.2982    1.7209 H         1 <0>         0.1291
     20 C14         3.2872   -0.0234    0.2074 C.2       1 <0>         0.5419
     21 O2          4.0078   -0.7398    0.8695 O.2       1 <0>        -0.5143
     22 N2          3.5006    0.1091   -1.1108 N.am      1 <0>        -0.5099
     23 C15         0.3010   -0.5622    0.0560 C.3       1 <0>        -0.1454
     24 C16         0.6535   -1.4361   -1.1072 C.3       1 <0>        -0.1630
     25 C17        -0.5833   -1.7333   -0.2440 C.3       1 <0>        -0.1468
     26 H5          3.9726    1.0805   -7.0384 H         1 <0>         0.1293
     27 H6          1.6445    0.6647   -6.3572 H         1 <0>         0.1318
     28 H7          1.0548    0.5812   -3.9692 H         1 <0>         0.1287
     29 H8          5.1359    1.3432   -2.9444 H         1 <0>         0.1277
     30 H9          5.7171    1.4150   -5.3349 H         1 <0>         0.1315
     31 H10        -1.3823    1.8061    1.7294 H         1 <0>         0.1386
     32 H11         0.0575    0.3214    3.2814 H         1 <0>         0.1387
     33 H12         4.2397   -0.3805   -1.5045 H         1 <0>         0.4204
     34 H13         0.4867   -1.0365   -2.1075 H         1 <0>         0.0948
     35 H14         1.5143   -2.0961   -1.0000 H         1 <0>         0.0967
     36 H15        -0.5347   -2.5883    0.4303 H         1 <0>         0.1011
     37 H16        -1.5623   -1.5287   -0.6773 H         1 <0>         0.1008
@<TRIPOS>BOND
     1    1    6 ar
     2    1    2 ar
     3    1   26 1
     4    2    3 ar
     5    2   27 1
     6    3    4 ar
     7    3   28 1
     8    4    5 ar
     9    4    7 1
    10    5    6 ar
    11    5   29 1
    12    6   30 1
    13    7   22 1
    14    7    8 am
    15    8    9 2
    16    8   10 1
    17   10   11 1
    18   10   18 1
    19   10   12 1
    20   12   13 1
    21   12   23 1
    22   12   14 1
    23   14   15 2
    24   14   31 1
    25   15   16 1
    26   15   32 1
    27   16   17 1
    28   16   18 1
    29   16   23 1
    30   18   19 1
    31   18   20 1
    32   20   21 2
    33   20   22 am
    34   22   33 1
    35   23   25 1
    36   23   24 1
    37   24   25 1
    38   24   34 1
    39   24   35 1
    40   25   36 1
    41   25   37 1
@<TRIPOS>MOLECULE
ZINC36260902
   35    37     0     0     0
SMALL
USER_CHARGES

@<TRIPOS>ATOM
      1 C1         -0.4116    1.4786   -0.4628 C.3       1 <0>        -0.1771
      2 C2         -0.3876   -0.0507   -0.5012 C.3       1 <0>         0.0798
      3 H1         -1.3950   -0.4249   -0.6836 H         1 <0>         0.1530
      4 C3          0.5266   -0.5106   -1.6083 C.2       1 <0>         0.4948
      5 O1          0.0834   -0.7150   -2.7188 O.2       1 <0>        -0.5027
      6 N1          1.8415   -0.6936   -1.3585 N.am      1 <0>        -0.5437
      7 C4          2.3217   -0.4840   -0.0557 C.ar      1 <0>         0.0895
      8 C5          3.6788   -0.3448    0.1831 C.ar      1 <0>        -0.1090
      9 C6          4.1338   -0.1399    1.4725 C.ar      1 <0>        -0.1345
     10 C7          3.2341   -0.0734    2.5264 C.ar      1 <0>         0.1179
     11 C8          1.8738   -0.2116    2.2909 C.ar      1 <0>        -0.1347
     12 C9          1.4157   -0.4162    1.0015 C.ar      1 <0>         0.0998
     13 O2          0.0865   -0.5509    0.7517 O.3       1 <0>        -0.2965
     14 O3          3.6864    0.1271    3.7928 O.3       1 <0>        -0.4923
     15 C10         2.7521   -1.1049   -2.4299 C.3       1 <0>         0.1490
     16 C11         2.9162   -2.6026   -2.4023 C.ar      1 <0>        -0.1271
     17 C12         3.9817   -3.1684   -1.7271 C.ar      1 <0>        -0.0707
     18 C13         4.1331   -4.5418   -1.7008 C.ar      1 <0>        -0.1553
     19 C14         3.2170   -5.3512   -2.3509 C.ar      1 <0>         0.1085
     20 C15         2.1502   -4.7835   -3.0268 C.ar      1 <0>        -0.1554
     21 C16         1.9980   -3.4101   -3.0474 C.ar      1 <0>        -0.0663
     22 F1          3.3642   -6.6940   -2.3262 F         1 <0>        -0.1369
     23 H2          0.5956    1.8533   -0.2805 H         1 <0>         0.0659
     24 H3         -0.7741    1.8604   -1.4173 H         1 <0>         0.0845
     25 H4         -1.0734    1.8117    0.3366 H         1 <0>         0.0877
     26 H5          4.3803   -0.3959   -0.6364 H         1 <0>         0.1383
     27 H6          5.1920   -0.0317    1.6597 H         1 <0>         0.1398
     28 H7          1.1743   -0.1599    3.1121 H         1 <0>         0.1461
     29 H8          3.7485    1.0585    4.0455 H         1 <0>         0.3945
     30 H9          2.3405   -0.8021   -3.3927 H         1 <0>         0.1083
     31 H10         3.7224   -0.6302   -2.2841 H         1 <0>         0.0974
     32 H11         4.6963   -2.5367   -1.2204 H         1 <0>         0.1328
     33 H12         4.9657   -4.9835   -1.1736 H         1 <0>         0.1387
     34 H13         1.4353   -5.4139   -3.5346 H         1 <0>         0.1381
     35 H14         1.1635   -2.9672   -3.5707 H         1 <0>         0.1376
@<TRIPOS>BOND
     1    1    2 1
     2    1   23 1
     3    1   24 1
     4    1   25 1
     5    2    3 1
     6    2   13 1
     7    2    4 1
     8    4    5 2
     9    4    6 am
    10    6    7 1
    11    6   15 1
    12    7   12 ar
    13    7    8 ar
    14    8    9 ar
    15    8   26 1
    16    9   10 ar
    17    9   27 1
    18   10   11 ar
    19   10   14 1
    20   11   12 ar
    21   11   28 1
    22   12   13 1
    23   14   29 1
    24   15   16 1
    25   15   30 1
    26   15   31 1
    27   16   21 ar
    28   16   17 ar
    29   17   18 ar
    30   17   32 1
    31   18   19 ar
    32   18   33 1
    33   19   20 ar
    34   19   22 1
    35   20   21 ar
    36   20   34 1
    37   21   35 1
@<TRIPOS>MOLECULE
ZINC39412769
   27    29     0     0     0
SMALL
USER_CHARGES

@<TRIPOS>ATOM
      1 C1         -0.0178    1.4608    0.0101 C.3       1 <0>         0.1501
      2 N1          0.0021   -0.0041    0.0020 N.pl3     1 <0>        -0.5350
      3 C2         -1.1498   -0.9102    0.0022 C.3       1 <0>         0.2144
      4 H1         -1.4651   -1.1652    1.0140 H         1 <0>         0.0902
      5 C3         -0.5714   -2.1134   -0.7419 C.2       1 <0>         0.1477
      6 N2         -1.4926   -2.6075   -1.4927 N.2       1 <0>        -0.4077
      7 C4         -2.7118   -1.7864   -1.4145 C.3       1 <0>         0.2449
      8 H2         -3.4430   -2.2572   -0.7575 H         1 <0>         0.1006
      9 N3         -2.2797   -0.4703   -0.8268 N.3       1 <0>        -0.6597
     10 C5         -3.2970   -1.5877   -2.7889 C.ar      1 <0>        -0.0599
     11 C6         -3.8813   -0.3803   -3.1235 C.ar      1 <0>        -0.0769
     12 C7         -4.4184   -0.1973   -4.3839 C.ar      1 <0>        -0.1081
     13 C8         -4.3722   -1.2216   -5.3113 C.ar      1 <0>        -0.0939
     14 C9         -3.7880   -2.4301   -4.9782 C.ar      1 <0>        -0.0381
     15 C10        -3.2444   -2.6114   -3.7174 C.ar      1 <0>        -0.0091
     16 Cl1        -2.5038   -4.1251   -3.3003 Cl        1 <0>        -0.0168
     17 Cl2        -3.7297   -3.7167   -6.1423 Cl        1 <0>        -0.0458
     18 C11         0.8376   -2.0691   -0.3457 C.2       1 <0>         0.0774
     19 N4          1.1315   -0.8440   -0.0138 N.2       1 <0>        -0.1681
     20 H3          1.0048    1.8381    0.0023 H         1 <0>         0.0812
     21 H4         -0.5450    1.8219   -0.8730 H         1 <0>         0.0606
     22 H5         -0.5280    1.8123    0.9069 H         1 <0>         0.0580
     23 H6         -3.0057   -0.0587   -0.2597 H         1 <0>         0.3591
     24 H7         -3.9186    0.4202   -2.3996 H         1 <0>         0.1398
     25 H8         -4.8746    0.7463   -4.6444 H         1 <0>         0.1409
     26 H9         -4.7926   -1.0782   -6.2957 H         1 <0>         0.1434
     27 H10         1.5176   -2.9081   -0.3347 H         1 <0>         0.2110
@<TRIPOS>BOND
     1    1    2 1
     2    1   20 1
     3    1   21 1
     4    1   22 1
     5    2   19 1
     6    2    3 1
     7    3    4 1
     8    3    9 1
     9    3    5 1
    10    5    6 2
    11    5   18 1
    12    6    7 1
    13    7    8 1
    14    7    9 1
    15    7   10 1
    16    9   23 1
    17   10   15 ar
    18   10   11 ar
    19   11   12 ar
    20   11   24 1
    21   12   13 ar
    22   12   25 1
    23   13   14 ar
    24   13   26 1
    25   14   15 ar
    26   14   17 1
    27   15   16 1
    28   18   19 2
    29   18   27 1
@<TRIPOS>MOLECULE
ZINC43427887
   38    40     0     0     0
SMALL
USER_CHARGES

@<TRIPOS>ATOM
      1 C1         -0.0573    1.5021    0.0169 C.3       1 <0>        -0.1217
      2 C2         -0.0239   -0.0045    0.0055 C.ar      1 <0>        -0.0441
      3 C3         -0.9138   -0.7071   -0.7907 C.ar      1 <0>        -0.1358
      4 C4         -0.8922   -2.0847   -0.8090 C.ar      1 <0>        -0.0710
      5 C5          0.0308   -2.7774   -0.0216 C.ar      1 <0>        -0.1695
      6 C6          0.9293   -2.0631    0.7824 C.ar      1 <0>         0.1645
      7 C7          0.8971   -0.6764    0.7841 C.ar      1 <0>        -0.1534
      8 O1          1.8297   -2.7247    1.5515 O.3       1 <0>        -0.4810
      9 C8          0.0591   -4.2524   -0.0360 C.2       1 <0>         0.5680
     10 O2          0.1715   -4.8685    1.0062 O.2       1 <0>        -0.5063
     11 N1         -0.0395   -4.9169   -1.2044 N.am      1 <0>        -0.6089
     12 C9         -0.0550   -4.2287   -2.5157 C.3       1 <0>         0.0701
     13 C10         0.9357   -4.8787   -3.4799 C.3       1 <0>         0.0479
     14 O3          0.8441   -6.3151   -3.4547 O.3       1 <0>        -0.3611
     15 C11         1.0624   -6.8172   -2.1572 C.3       1 <0>         0.0669
     16 H1          1.9760   -6.3789   -1.7554 H         1 <0>         0.0598
     17 C12        -0.1333   -6.3708   -1.2769 C.3       1 <0>         0.1014
     18 H2         -1.0799   -6.6756   -1.7233 H         1 <0>         0.0906
     19 C13         0.1462   -7.1426    0.0152 C.3       1 <0>        -0.1133
     20 C14         0.5927   -8.5378   -0.5048 C.3       1 <0>        -0.1251
     21 C15         1.0944   -8.3201   -1.9336 C.3       1 <0>        -0.1114
     22 H3          0.6068    1.8861   -0.7574 H         1 <0>         0.0778
     23 H4         -1.0744    1.8443   -0.1742 H         1 <0>         0.0729
     24 H5          0.2714    1.8654    0.9905 H         1 <0>         0.0717
     25 H6         -1.6280   -0.1726   -1.3996 H         1 <0>         0.1331
     26 H7         -1.5880   -2.6282   -1.4310 H         1 <0>         0.1327
     27 H8          1.5905   -0.1216    1.3988 H         1 <0>         0.1367
     28 H9          2.6719   -2.8989    1.1094 H         1 <0>         0.3916
     29 H10        -1.0578   -4.2858   -2.9390 H         1 <0>         0.0791
     30 H11         0.2153   -3.1822   -2.3749 H         1 <0>         0.1002
     31 H12         0.7294   -4.5276   -4.4910 H         1 <0>         0.1112
     32 H13         1.9474   -4.5827   -3.2024 H         1 <0>         0.0570
     33 H14         0.9467   -6.6680    0.5827 H         1 <0>         0.0943
     34 H15        -0.7581   -7.2267    0.6179 H         1 <0>         0.0745
     35 H16         1.3804   -8.9402    0.1320 H         1 <0>         0.0751
     36 H17        -0.2577   -9.2194   -0.5254 H         1 <0>         0.0706
     37 H18         0.4497   -8.8235   -2.6541 H         1 <0>         0.0797
     38 H19         2.1156   -8.6928   -2.0135 H         1 <0>         0.0749
@<TRIPOS>BOND
     1    1    2 1
     2    1   22 1
     3    1   23 1
     4    1   24 1
     5    2    7 ar
     6    2    3 ar
     7    3    4 ar
     8    3   25 1
     9    4    5 ar
    10    4   26 1
    11    5    6 ar
    12    5    9 1
    13    6    7 ar
    14    6    8 1
    15    7   27 1
    16    8   28 1
    17    9   10 2
    18    9   11 am
    19   11   17 1
    20   11   12 1
    21   12   13 1
    22   12   29 1
    23   12   30 1
    24   13   14 1
    25   13   31 1
    26   13   32 1
    27   14   15 1
    28   15   16 1
    29   15   21 1
    30   15   17 1
    31   17   18 1
    32   17   19 1
    33   19   20 1
    34   19   33 1
    35   19   34 1
    36   20   21 1
    37   20   35 1
    38   20   36 1
    39   21   37 1
    40   21   38 1
@<TRIPOS>MOLECULE
ZINC52063180
   35    37     0     0     0
SMALL
USER_CHARGES

@<TRIPOS>ATOM
      1 C1         -0.0188    1.5384    0.0105 C.3       1 <0>        -0.1294
      2 C2          1.4774    1.9387   -0.0016 C.3       1 <0>        -0.1238
      3 C3          2.1065    0.8811   -0.9423 C.3       1 <0>        -0.1424
      4 C4          1.3534   -0.4220   -0.6038 C.3       1 <0>         0.0195
      5 C5          0.0021   -0.0041    0.0020 C.3       1 <0>        -0.1443
      6 N1          1.1356   -1.2091   -1.8249 N.4       1 <0>        -0.3787
      7 C6          2.4318   -1.5334   -2.4337 C.3       1 <0>        -0.0233
      8 C7          2.2029   -2.2546   -3.7661 C.3       1 <0>         0.1151
      9 N2          1.3377   -3.4193   -3.5234 N.pl3     1 <0>        -0.5908
     10 C8          0.0899   -3.2114   -2.7725 C.3       1 <0>         0.1141
     11 C9          0.4185   -2.4450   -1.4870 C.3       1 <0>        -0.0245
     12 C10         1.6890   -4.6804   -3.9906 C.2       1 <0>         0.2818
     13 N3          2.7571   -5.0527   -4.6683 N.2       1 <0>        -0.3519
     14 N4          2.9102   -6.3695   -5.0360 N.2       1 <0>        -0.3499
     15 C11         1.9874   -7.2537   -4.7088 C.2       1 <0>         0.3050
     16 S1          0.8180   -6.2313   -3.8267 S.3       1 <0>        -0.1727
     17 S2          1.9275   -8.9820   -5.0464 S.3       1 <0>        -0.6526
     18 H1         -0.5054    1.9084    0.9130 H         1 <0>         0.0853
     19 H2         -0.5225    1.9180   -0.8785 H         1 <0>         0.0771
     20 H3          1.6056    2.9420   -0.4079 H         1 <0>         0.0867
     21 H4          1.9042    1.8684    0.9989 H         1 <0>         0.0819
     22 H5          1.9461    1.1545   -1.9852 H         1 <0>         0.0877
     23 H6          3.1710    0.7713   -0.7351 H         1 <0>         0.0977
     24 H7          1.9228   -1.0050    0.1201 H         1 <0>         0.1390
     25 H8         -0.0844   -0.3843    1.0199 H         1 <0>         0.1018
     26 H9         -0.8154   -0.3852   -0.6101 H         1 <0>         0.0855
     27 H10         2.9910   -0.6144   -2.6092 H         1 <0>         0.1403
     28 H11         2.9968   -2.1803   -1.7626 H         1 <0>         0.1333
     29 H12         1.7179   -1.5784   -4.4700 H         1 <0>         0.0863
     30 H13         3.1586   -2.5865   -4.1718 H         1 <0>         0.1338
     31 H14        -0.6086   -2.6318   -3.3761 H         1 <0>         0.0910
     32 H15        -0.3515   -4.1759   -2.5213 H         1 <0>         0.1256
     33 H16         1.0444   -3.0644   -0.8446 H         1 <0>         0.1347
     34 H17        -0.5059   -2.1978   -0.9649 H         1 <0>         0.1418
     35 H18         0.5858   -0.6703   -2.4772 H         1 <0>         0.4192
@<TRIPOS>BOND
     1    1    5 1
     2    1    2 1
     3    1   18 1
     4    1   19 1
     5    2    3 1
     6    2   20 1
     7    2   21 1
     8    3    4 1
     9    3   22 1
    10    3   23 1
    11    4    5 1
    12    4    6 1
    13    4   24 1
    14    5   25 1
    15    5   26 1
    16    6   11 1
    17    6    7 1
    18    6   35 1
    19    7    8 1
    20    7   27 1
    21    7   28 1
    22    8    9 1
    23    8   29 1
    24    8   30 1
    25    9   10 1
    26    9   12 1
    27   10   11 1
    28   10   31 1
    29   10   32 1
    30   11   33 1
    31   11   34 1
    32   12   16 1
    33   12   13 2
    34   13   14 1
    35   14   15 2
    36   15   16 1
    37   15   17 1
@<TRIPOS>MOLECULE
ZINC21213861
   31    33     0     0     0
SMALL
USER_CHARGES

@<TRIPOS>ATOM
      1 C1         -0.0187    1.5258    0.0104 C.3       1 <0>        -0.1479
      2 C2          0.0021   -0.0041    0.0020 C.3       1 <0>        -0.0877
      3 H1          0.5120   -0.3573   -0.8943 H         1 <0>         0.0765
      4 C3         -1.4336   -0.5365    0.0187 C.3       1 <0>        -0.1182
      5 C4         -1.4333   -2.0453   -0.2380 C.3       1 <0>        -0.0572
      6 C5         -0.4651   -2.7043    0.7331 C.2       1 <0>        -0.0628
      7 C6         -0.4590   -4.1171    1.0606 C.2       1 <0>        -0.1755
      8 C7          0.4839   -4.5564    1.9613 C.2       1 <0>        -0.2211
      9 S1          1.3393   -3.1704    2.3712 S.3       1 <0>         0.2186
     10 C8          0.4844   -1.9857    1.3742 C.2       1 <0>        -0.1874
     11 C9          0.7395   -0.5154    1.2486 C.3       1 <0>        -0.0337
     12 C10        -1.4251   -5.0458    0.4529 C.2       1 <0>         0.5709
     13 O1         -2.2494   -4.6328   -0.3406 O.2       1 <0>        -0.4570
     14 N1         -1.3968   -6.3541    0.7754 N.am      1 <0>        -0.6105
     15 C11        -2.3093   -7.2313    0.2014 C.2       1 <0>         0.3033
     16 N2         -3.2752   -7.0030   -0.6779 N.2       1 <0>        -0.2859
     17 N3         -4.0227   -7.9270   -1.0998 N.2       1 <0>        -0.2530
     18 C12        -3.8928   -9.1749   -0.6956 C.2       1 <0>         0.0456
     19 S2         -2.5129   -8.9954    0.4312 S.3       1 <0>        -0.0324
     20 H2          1.0039    1.9031    0.0027 H         1 <0>         0.0575
     21 H3         -0.5459    1.8868   -0.8726 H         1 <0>         0.0598
     22 H4         -0.5289    1.8773    0.9072 H         1 <0>         0.0572
     23 H5         -1.8832   -0.3348    0.9910 H         1 <0>         0.0656
     24 H6         -2.0138   -0.0374   -0.7574 H         1 <0>         0.0729
     25 H7         -2.4359   -2.4431   -0.0813 H         1 <0>         0.0921
     26 H8         -1.1150   -2.2420   -1.2617 H         1 <0>         0.0808
     27 H9          0.6388   -5.5626    2.3220 H         1 <0>         0.1897
     28 H10         1.8091   -0.3336    1.1432 H         1 <0>         0.0839
     29 H11         0.3645   -0.0018    2.1339 H         1 <0>         0.0861
     30 H12        -0.7394   -6.6835    1.4081 H         1 <0>         0.4263
     31 H13        -4.4552  -10.0553   -0.9696 H         1 <0>         0.2434
@<TRIPOS>BOND
     1    1    2 1
     2    1   20 1
     3    1   21 1
     4    1   22 1
     5    2    3 1
     6    2   11 1
     7    2    4 1
     8    4    5 1
     9    4   23 1
    10    4   24 1
    11    5    6 1
    12    5   25 1
    13    5   26 1
    14    6   10 2
    15    6    7 1
    16    7    8 2
    17    7   12 1
    18    8    9 1
    19    8   27 1
    20    9   10 1
    21   10   11 1
    22   11   28 1
    23   11   29 1
    24   12   13 2
    25   12   14 am
    26   14   15 1
    27   14   30 1
    28   15   19 1
    29   15   16 2
    30   16   17 1
    31   17   18 2
    32   18   19 1
    33   18   31 1
@<TRIPOS>MOLECULE
ZINC02765831
   44    47     0     0     0
SMALL
USER_CHARGES
N-(10-cyano-8-thiabicyclo[5.3.0]deca-9,11-dien-9-yl)-2-phenyl-cyclopropane-1-carboxamide
@<TRIPOS>ATOM
      1 C1         -1.0765   -2.0114    3.6151 C.ar      1 <0>        -0.1153
      2 C2         -1.8056   -2.2268    2.4606 C.ar      1 <0>        -0.1271
      3 C3         -1.4568   -1.5770    1.2915 C.ar      1 <0>        -0.1081
      4 C4         -0.3785   -0.7121    1.2767 C.ar      1 <0>        -0.0574
      5 C5          0.3541   -0.5011    2.4298 C.ar      1 <0>        -0.0612
      6 C6          0.0020   -1.1469    3.6002 C.ar      1 <0>        -0.1228
      7 C7          0.0021   -0.0041    0.0020 C.3       1 <0>        -0.0705
      8 H1         -0.2904   -0.5063   -0.9201 H         1 <0>         0.1272
      9 C8          1.3165    0.7789   -0.0063 C.3       1 <0>        -0.1430
     10 C9         -0.0187    1.5258    0.0104 C.3       1 <0>        -0.1870
     11 H2         -0.3248    2.0300   -0.9061 H         1 <0>         0.1352
     12 C10        -0.4176    2.2092    1.2929 C.2       1 <0>         0.5330
     13 O1         -0.7068    1.5482    2.2678 O.2       1 <0>        -0.4697
     14 N1         -0.4530    3.5550    1.3566 N.am      1 <0>        -0.6191
     15 C11        -0.8205    4.1845    2.5378 C.2       1 <0>         0.0936
     16 C12        -0.9100    5.5419    2.7983 C.2       1 <0>        -0.1365
     17 C13        -1.3297    5.9507    4.1313 C.2       1 <0>        -0.0564
     18 C14        -1.5739    4.9345    4.9876 C.2       1 <0>        -0.2053
     19 S1         -1.2711    3.4637    4.0467 S.3       1 <0>         0.2553
     20 C15        -1.9929    5.0270    6.4215 C.3       1 <0>        -0.0385
     21 C16        -3.1688    6.0054    6.5437 C.3       1 <0>        -0.1154
     22 C17        -2.6088    7.4064    6.7692 C.3       1 <0>        -0.1224
     23 C18        -1.2801    7.5666    6.0332 C.3       1 <0>        -0.1246
     24 C19        -1.4825    7.4132    4.5298 C.3       1 <0>        -0.0597
     25 C20        -0.6035    6.5107    1.7893 C.1       1 <0>         0.2683
     26 N2         -0.3603    7.2793    0.9889 N.1       1 <0>        -0.4265
     27 H3         -1.3493   -2.5188    4.5286 H         1 <0>         0.1175
     28 H4         -2.6481   -2.9026    2.4722 H         1 <0>         0.1185
     29 H5         -2.0264   -1.7453    0.3895 H         1 <0>         0.1169
     30 H6          1.1992    0.1712    2.4172 H         1 <0>         0.1104
     31 H7          0.5719   -0.9789    4.5021 H         1 <0>         0.1171
     32 H8          1.8888    0.7918   -0.9339 H         1 <0>         0.1162
     33 H9          1.9064    0.7818    0.9103 H         1 <0>         0.1076
     34 H10        -0.2217    4.0837    0.5769 H         1 <0>         0.4203
     35 H11        -2.3002    4.0427    6.7750 H         1 <0>         0.0763
     36 H12        -1.1569    5.3848    7.0226 H         1 <0>         0.0915
     37 H13        -3.7569    5.9887    5.6261 H         1 <0>         0.0683
     38 H14        -3.7967    5.7209    7.3879 H         1 <0>         0.0718
     39 H15        -3.3195    8.1439    6.3965 H         1 <0>         0.0640
     40 H16        -2.4523    7.5655    7.8361 H         1 <0>         0.0654
     41 H17        -0.8688    8.5541    6.2427 H         1 <0>         0.0671
     42 H18        -0.5809    6.8067    6.3821 H         1 <0>         0.0753
     43 H19        -2.4810    7.7589    4.2619 H         1 <0>         0.0802
     44 H20        -0.7391    8.0103    4.0017 H         1 <0>         0.0696
@<TRIPOS>BOND
     1    1    6 ar
     2    1    2 ar
     3    1   27 1
     4    2    3 ar
     5    2   28 1
     6    3    4 ar
     7    3   29 1
     8    4    5 ar
     9    4    7 1
    10    5    6 ar
    11    5   30 1
    12    6   31 1
    13    7    8 1
    14    7   10 1
    15    7    9 1
    16    9   10 1
    17    9   32 1
    18    9   33 1
    19   10   11 1
    20   10   12 1
    21   12   13 2
    22   12   14 am
    23   14   15 1
    24   14   34 1
    25   15   19 1
    26   15   16 2
    27   16   17 1
    28   16   25 1
    29   17   24 1
    30   17   18 2
    31   18   19 1
    32   18   20 1
    33   20   21 1
    34   20   35 1
    35   20   36 1
    36   21   22 1
    37   21   37 1
    38   21   38 1
    39   22   23 1
    40   22   39 1
    41   22   40 1
    42   23   24 1
    43   23   41 1
    44   23   42 1
    45   24   43 1
    46   24   44 1
    47   25   26 3
@<TRIPOS>MOLECULE
ZINC19861924
   50    53     0     0     0
SMALL
USER_CHARGES
[(2R,4aR,12aS)-7-hydroxy-4a-methyl-2,3,4,5,6,11,12,12a-octahydro-1H-chrysen-2-yl] acetate
@<TRIPOS>ATOM
      1 C1          0.6830    7.4949   -2.8523 C.3       1 <0>        -0.1518
      2 C2          0.6705    5.9973   -2.6848 C.2       1 <0>         0.4589
      3 O1          0.6391    5.2809   -3.6572 O.2       1 <0>        -0.5147
      4 O2          0.6941    5.4593   -1.4553 O.3       1 <0>        -0.3582
      5 C3          0.6801    4.0099   -1.3696 C.3       1 <0>         0.0879
      6 H1          1.1788    3.6414   -2.2782 H         1 <0>         0.0877
      7 C4         -0.7661    3.5129   -1.2932 C.3       1 <0>        -0.1342
      8 C5         -0.7684    1.9852   -1.2368 C.3       1 <0>        -0.1022
      9 C6         -0.0184    1.5079    0.0103 C.3       1 <0>        -0.0135
     10 C7          1.4081    2.0456   -0.0004 C.3       1 <0>        -0.0730
     11 H2          1.9010    1.7896    0.9491 H         1 <0>         0.0814
     12 C8          1.4265    3.5642   -0.1109 C.3       1 <0>        -0.1109
     13 C9          2.1550    1.4081   -1.1744 C.3       1 <0>        -0.1202
     14 C10         2.3384   -0.0761   -0.8630 C.3       1 <0>        -0.0765
     15 C11         1.0440   -0.6994   -0.4097 C.2       1 <0>        -0.0880
     16 C12         0.0021   -0.0041    0.0020 C.2       1 <0>        -0.0852
     17 C13        -1.2299   -0.7124    0.5221 C.3       1 <0>        -0.0859
     18 C14        -1.5359   -1.9497   -0.3174 C.3       1 <0>        -0.0696
     19 C15        -0.2962   -2.7999   -0.4175 C.ar      1 <0>        -0.1199
     20 C16         0.9493   -2.1814   -0.4678 C.ar      1 <0>        -0.0058
     21 C17         2.1064   -2.9520   -0.5709 C.ar      1 <0>        -0.1524
     22 C18         2.0085   -4.3290   -0.6196 C.ar      1 <0>        -0.0826
     23 C19         0.7708   -4.9423   -0.5654 C.ar      1 <0>        -0.2153
     24 C20        -0.3862   -4.1792   -0.4635 C.ar      1 <0>         0.1589
     25 O3         -1.6011   -4.7858   -0.4098 O.3       1 <0>        -0.5082
     26 C21        -0.7413    2.0022    1.2650 C.3       1 <0>        -0.1489
     27 H3          0.7122    7.9743   -1.8627 H         1 <0>         0.0920
     28 H4         -0.2249    7.8117   -3.3866 H         1 <0>         0.1059
     29 H5          1.5708    7.7918   -3.4299 H         1 <0>         0.1060
     30 H6         -1.2454    3.9170   -0.3894 H         1 <0>         0.0786
     31 H7         -1.3175    3.8509   -2.1830 H         1 <0>         0.0688
     32 H8         -1.8057    1.6213   -1.1975 H         1 <0>         0.0725
     33 H9         -0.2730    1.5844   -2.1334 H         1 <0>         0.0704
     34 H10         2.4697    3.9094   -0.1617 H         1 <0>         0.0743
     35 H11         0.9401    3.9962    0.7761 H         1 <0>         0.0798
     36 H12         1.5667    1.5343   -2.0952 H         1 <0>         0.0714
     37 H13         3.1336    1.8959   -1.2948 H         1 <0>         0.0711
     38 H14         2.6838   -0.6003   -1.7663 H         1 <0>         0.0744
     39 H15         3.0844   -0.1935   -0.0631 H         1 <0>         0.0761
     40 H16        -1.0621   -1.0225    1.5641 H         1 <0>         0.0754
     41 H17        -2.0916   -0.0302    0.4768 H         1 <0>         0.0789
     42 H18        -2.3415   -2.5267    0.1601 H         1 <0>         0.0819
     43 H19        -1.8535   -1.6404   -1.3241 H         1 <0>         0.0726
     44 H20         3.0743   -2.4748   -0.6129 H         1 <0>         0.1255
     45 H21         2.9028   -4.9291   -0.7000 H         1 <0>         0.1237
     46 H22         0.7026   -6.0194   -0.6028 H         1 <0>         0.1249
     47 H23        -1.6701   -5.8830   -0.4466 H         1 <0>         0.4327
     48 H24        -0.2008    1.6581    2.1591 H         1 <0>         0.0587
     49 H25        -1.7659    1.6022    1.2794 H         1 <0>         0.0624
     50 H26        -0.7769    3.1016    1.2585 H         1 <0>         0.0641
@<TRIPOS>BOND
     1    1    2 1
     2    1   27 1
     3    1   28 1
     4    1   29 1
     5    2    3 2
     6    2    4 1
     7    4    5 1
     8    5    6 1
     9    5   12 1
    10    5    7 1
    11    7    8 1
    12    7   30 1
    13    7   31 1
    14    8    9 1
    15    8   32 1
    16    8   33 1
    17    9   16 1
    18    9   10 1
    19    9   26 1
    20   10   11 1
    21   10   12 1
    22   10   13 1
    23   12   34 1
    24   12   35 1
    25   13   14 1
    26   13   36 1
    27   13   37 1
    28   14   15 1
    29   14   38 1
    30   14   39 1
    31   15   20 1
    32   15   16 2
    33   16   17 1
    34   17   18 1
    35   17   40 1
    36   17   41 1
    37   18   19 1
    38   18   42 1
    39   18   43 1
    40   19   24 ar
    41   19   20 ar
    42   20   21 ar
    43   21   22 ar
    44   21   44 1
    45   22   23 ar
    46   22   45 1
    47   23   24 ar
    48   23   46 1
    49   24   25 1
    50   25   47 1
    51   26   48 1
    52   26   49 1
    53   26   50 1
@<TRIPOS>MOLECULE
ZINC39526406
   48    50     0     0     0
SMALL
USER_CHARGES

@<TRIPOS>ATOM
      1 C1         -0.9801    2.0103   -0.2478 C.3       1 <0>        -0.1547
      2 C2         -0.6662    0.5139   -0.3040 C.3       1 <0>         0.0437
      3 O1         -1.8830   -0.2313   -0.2260 O.3       1 <0>        -0.2427
      4 N1         -1.6896   -1.6786   -0.1345 N.3       1 <0>        -0.3426
      5 C3         -2.0078   -2.3337   -1.4096 C.3       1 <0>         0.1088
      6 H1         -3.0718   -2.2234   -1.6190 H         1 <0>         0.0703
      7 C4         -1.6566   -3.8206   -1.3226 C.3       1 <0>        -0.1033
      8 C5         -2.4552   -4.4624   -0.1845 C.3       1 <0>        -0.1291
      9 C6         -2.1419   -3.7311    1.1237 C.3       1 <0>        -0.1040
     10 C7         -2.4785   -2.2463    0.9663 C.3       1 <0>         0.1124
     11 C8         -2.1464   -1.5095    2.2655 C.3       1 <0>        -0.1020
     12 C9         -2.4854   -0.0256    2.1119 C.3       1 <0>        -0.1593
     13 C10        -3.9766    0.1279    1.8059 C.3       1 <0>        -0.1124
     14 C11        -4.3082   -0.6079    0.5060 C.3       1 <0>         0.0035
     15 H2         -3.7237   -0.1842   -0.3106 H         1 <0>         0.1204
     16 C12        -3.9694   -2.0920    0.6593 C.3       1 <0>        -0.1493
     17 Cl1        -6.0653   -0.4269    0.1444 Cl        1 <0>        -0.1990
     18 C13        -1.2094   -1.6935   -2.5159 C.ar      1 <0>        -0.1017
     19 C14         0.1379   -1.4428   -2.3404 C.ar      1 <0>        -0.0798
     20 C15         0.8707   -0.8550   -3.3546 C.ar      1 <0>        -0.1347
     21 C16         0.2577   -0.5170   -4.5472 C.ar      1 <0>        -0.1005
     22 C17        -1.0888   -0.7659   -4.7278 C.ar      1 <0>        -0.1472
     23 C18        -1.8254   -1.3605   -3.7133 C.ar      1 <0>         0.1151
     24 O2         -3.1492   -1.6116   -3.8906 O.3       1 <0>        -0.4962
     25 H3         -0.0520    2.5788   -0.3073 H         1 <0>         0.0742
     26 H4         -1.6245    2.2781   -1.0852 H         1 <0>         0.0604
     27 H5         -1.4876    2.2402    0.6890 H         1 <0>         0.0633
     28 H6         -0.1588    0.2840   -1.2409 H         1 <0>         0.0651
     29 H7         -0.0219    0.2462    0.5334 H         1 <0>         0.0566
     30 H8         -1.9074   -4.3095   -2.2640 H         1 <0>         0.0776
     31 H9         -0.5902   -3.9319   -1.1267 H         1 <0>         0.0751
     32 H10        -3.5212   -4.3851   -0.3988 H         1 <0>         0.0670
     33 H11        -2.1767   -5.5120   -0.0908 H         1 <0>         0.0740
     34 H12        -2.7394   -4.1561    1.9302 H         1 <0>         0.0788
     35 H13        -1.0831   -3.8413    1.3576 H         1 <0>         0.0785
     36 H14        -2.7305   -1.9329    3.0827 H         1 <0>         0.0678
     37 H15        -1.0841   -1.6187    2.4838 H         1 <0>         0.0715
     38 H16        -2.2486    0.4989    3.0376 H         1 <0>         0.0568
     39 H17        -1.9014    0.3979    1.2948 H         1 <0>         0.1262
     40 H18        -4.5608   -0.2961    2.6227 H         1 <0>         0.0642
     41 H19        -4.2183    1.1852    1.6968 H         1 <0>         0.0684
     42 H20        -4.2057   -2.6161   -0.2668 H         1 <0>         0.0793
     43 H21        -4.5541   -2.5157    1.4757 H         1 <0>         0.0800
     44 H22         0.6189   -1.7058   -1.4099 H         1 <0>         0.1311
     45 H23         1.9236   -0.6593   -3.2152 H         1 <0>         0.1251
     46 H24         0.8323   -0.0576   -5.3380 H         1 <0>         0.1258
     47 H25        -1.5671   -0.5017   -5.6594 H         1 <0>         0.1277
     48 H26        -3.7270   -0.8852   -3.6196 H         1 <0>         0.3893
@<TRIPOS>BOND
     1    1    2 1
     2    1   25 1
     3    1   26 1
     4    1   27 1
     5    2    3 1
     6    2   28 1
     7    2   29 1
     8    3    4 1
     9    4   10 1
    10    4    5 1
    11    5    6 1
    12    5    7 1
    13    5   18 1
    14    7    8 1
    15    7   30 1
    16    7   31 1
    17    8    9 1
    18    8   32 1
    19    8   33 1
    20    9   10 1
    21    9   34 1
    22    9   35 1
    23   10   16 1
    24   10   11 1
    25   11   12 1
    26   11   36 1
    27   11   37 1
    28   12   13 1
    29   12   38 1
    30   12   39 1
    31   13   14 1
    32   13   40 1
    33   13   41 1
    34   14   15 1
    35   14   16 1
    36   14   17 1
    37   16   42 1
    38   16   43 1
    39   18   23 ar
    40   18   19 ar
    41   19   20 ar
    42   19   44 1
    43   20   21 ar
    44   20   45 1
    45   21   22 ar
    46   21   46 1
    47   22   23 ar
    48   22   47 1
    49   23   24 1
    50   24   48 1
@<TRIPOS>MOLECULE
ZINC49340383
   43    44     0     0     0
SMALL
USER_CHARGES

@<TRIPOS>ATOM
      1 C1          0.0149    1.5275   -0.0101 C.3       1 <0>        -0.1370
      2 C2          0.0166   -0.0025   -0.0075 C.3       1 <0>         0.1605
      3 H1         -1.0060   -0.3688    0.0829 H         1 <0>         0.0691
      4 C3          0.6333   -0.5176   -1.3117 C.3       1 <0>        -0.1329
      5 C4          0.7598   -2.0413   -1.2446 C.3       1 <0>        -0.1205
      6 C5          1.6840   -2.4278   -0.0876 C.3       1 <0>        -0.1364
      7 C6          1.0792   -1.9343    1.2305 C.3       1 <0>         0.1131
      8 N1          0.8169   -0.4922    1.1232 N.am      1 <0>        -0.6259
      9 C7          1.3040    0.3650    2.0420 C.2       1 <0>         0.7091
     10 O1          0.9946    1.5402    2.0014 O.2       1 <0>        -0.5789
     11 N2          2.1342   -0.0803    3.0059 N.am      1 <0>        -0.7423
     12 C8          2.5743    0.8257    4.0697 C.3       1 <0>         0.1668
     13 H2          1.7664    1.5139    4.3182 H         1 <0>         0.0900
     14 C9          3.7918    1.6196    3.5922 C.3       1 <0>        -0.1643
     15 C10         2.9503    0.0118    5.3095 C.3       1 <0>        -0.0935
     16 C11         1.7227   -0.6735    5.8520 C.ar      1 <0>        -0.0635
     17 C12         0.9318   -0.0347    6.7887 C.ar      1 <0>        -0.1091
     18 C13        -0.1946   -0.6626    7.2862 C.ar      1 <0>        -0.0861
     19 C14        -0.5303   -1.9305    6.8466 C.ar      1 <0>        -0.0937
     20 C15         0.2613   -2.5693    5.9093 C.ar      1 <0>        -0.0873
     21 C16         1.3846   -1.9384    5.4085 C.ar      1 <0>        -0.1096
     22 Br1        -2.0708   -2.7904    7.5273 Br        1 <0>        -0.0506
     23 H3          1.0421    1.8919    0.0014 H         1 <0>         0.0641
     24 H4         -0.4888    1.8887   -0.9067 H         1 <0>         0.0428
     25 H5         -0.5097    1.8918    0.8731 H         1 <0>         0.0798
     26 H6         -0.0063   -0.2422   -2.1502 H         1 <0>         0.0757
     27 H7          1.6208   -0.0762   -1.4464 H         1 <0>         0.0665
     28 H8         -0.2249   -2.4808   -1.0851 H         1 <0>         0.0649
     29 H9          1.1756   -2.4128   -2.1812 H         1 <0>         0.0667
     30 H10         1.7922   -3.5119   -0.0549 H         1 <0>         0.0759
     31 H11         2.6616   -1.9684   -0.2338 H         1 <0>         0.0669
     32 H12         0.1440   -2.4602    1.4230 H         1 <0>         0.0701
     33 H13         1.7791   -2.1189    2.0455 H         1 <0>         0.0732
     34 H14         2.4403   -1.0007    2.9952 H         1 <0>         0.3904
     35 H15         3.5239    2.1994    2.7089 H         1 <0>         0.0657
     36 H16         4.1193    2.2937    4.3837 H         1 <0>         0.0662
     37 H17         4.5997    0.9314    3.3438 H         1 <0>         0.0558
     38 H18         3.6954   -0.7369    5.0405 H         1 <0>         0.0813
     39 H19         3.3612    0.6764    6.0696 H         1 <0>         0.0948
     40 H20         1.1942    0.9551    7.1322 H         1 <0>         0.1325
     41 H21        -0.8122   -0.1636    8.0183 H         1 <0>         0.1330
     42 H22        -0.0005   -3.5591    5.5657 H         1 <0>         0.1319
     43 H23         2.0005   -2.4354    4.6736 H         1 <0>         0.1250
@<TRIPOS>BOND
     1    1    2 1
     2    1   23 1
     3    1   24 1
     4    1   25 1
     5    2    3 1
     6    2    8 1
     7    2    4 1
     8    4    5 1
     9    4   26 1
    10    4   27 1
    11    5    6 1
    12    5   28 1
    13    5   29 1
    14    6    7 1
    15    6   30 1
    16    6   31 1
    17    7    8 1
    18    7   32 1
    19    7   33 1
    20    8    9 am
    21    9   10 2
    22    9   11 am
    23   11   12 1
    24   11   34 1
    25   12   13 1
    26   12   14 1
    27   12   15 1
    28   14   35 1
    29   14   36 1
    30   14   37 1
    31   15   16 1
    32   15   38 1
    33   15   39 1
    34   16   21 ar
    35   16   17 ar
    36   17   18 ar
    37   17   40 1
    38   18   19 ar
    39   18   41 1
    40   19   20 ar
    41   19   22 1
    42   20   21 ar
    43   20   42 1
    44   21   43 1
@<TRIPOS>MOLECULE
ZINC02424120
   46    49     0     0     0
SMALL
USER_CHARGES

@<TRIPOS>ATOM
      1 C1         -0.0187    1.5258    0.0104 C.3       1 <0>        -0.1338
      2 C2          0.0021   -0.0041    0.0020 C.3       1 <0>        -0.0009
      3 C3         -1.4025   -0.5538    0.1405 C.ar      1 <0>        -0.1562
      4 C4         -2.5394   -0.3333   -0.6114 C.ar      1 <0>        -0.0568
      5 C5         -3.7299   -0.9465   -0.2687 C.ar      1 <0>        -0.1685
      6 C6         -3.7804   -1.7834    0.8312 C.ar      1 <0>        -0.0743
      7 C7         -2.6469   -2.0144    1.5802 C.ar      1 <0>        -0.1765
      8 C8         -1.4375   -1.4064    1.2366 C.ar      1 <0>         0.2038
      9 N1         -0.1817   -1.5315    1.8138 N.pl3     1 <0>        -0.6514
     10 C9          0.7384   -0.5366    1.2346 C.3       1 <0>         0.3975
     11 N2          1.9761   -1.2238    0.8869 N.2       1 <0>        -0.6019
     12 C10         2.2688   -2.3922    1.3040 C.2       1 <0>         0.3863
     13 C11         1.4278   -3.2835    2.1627 C.3       1 <0>        -0.1231
     14 C12         0.2779   -2.5037    2.8173 C.3       1 <0>         0.1376
     15 O1          3.4699   -2.8794    0.9295 O.3       1 <0>        -0.4805
     16 C13         0.9954    0.5777    2.2160 C.2       1 <0>        -0.1314
     17 C14         0.4947    0.5102    3.4417 C.2       1 <0>        -0.1127
     18 C15         0.7468    1.6031    4.4042 C.ar      1 <0>        -0.0449
     19 C16         1.5066    2.7102    4.0243 C.ar      1 <0>        -0.1031
     20 C17         1.7384    3.7270    4.9273 C.ar      1 <0>        -0.1112
     21 C18         1.2199    3.6512    6.2080 C.ar      1 <0>        -0.1068
     22 C19         0.4663    2.5571    6.5921 C.ar      1 <0>        -0.1084
     23 C20         0.2210    1.5351    5.6959 C.ar      1 <0>        -0.0272
     24 Cl1        -0.7316    0.1658    6.1768 Cl        1 <0>        -0.0651
     25 C21         0.6588   -0.5221   -1.2791 C.3       1 <0>        -0.1169
     26 H1          1.0039    1.9031    0.0027 H         1 <0>         0.0629
     27 H2         -0.5459    1.8868   -0.8726 H         1 <0>         0.0636
     28 H3         -0.5289    1.8773    0.9072 H         1 <0>         0.0611
     29 H4         -2.4984    0.3207   -1.4699 H         1 <0>         0.1189
     30 H5         -4.6179   -0.7729   -0.8584 H         1 <0>         0.1222
     31 H6         -4.7116   -2.2573    1.1044 H         1 <0>         0.1226
     32 H7         -2.6943   -2.6690    2.4379 H         1 <0>         0.1147
     33 H8          1.0132   -4.0830    1.5488 H         1 <0>         0.1025
     34 H9          2.0517   -3.7204    2.9424 H         1 <0>         0.1060
     35 H10         0.6356   -1.9839    3.7061 H         1 <0>         0.0782
     36 H11        -0.5333   -3.1827    3.0800 H         1 <0>         0.0985
     37 H12         3.9839   -2.2758    0.3758 H         1 <0>         0.4049
     38 H13         1.5875    1.4314    1.9208 H         1 <0>         0.1299
     39 H14        -0.0973   -0.3435    3.7369 H         1 <0>         0.1335
     40 H15         1.9127    2.7707    3.0254 H         1 <0>         0.1330
     41 H16         2.3263    4.5842    4.6341 H         1 <0>         0.1317
     42 H17         1.4048    4.4501    6.9109 H         1 <0>         0.1338
     43 H18         0.0648    2.5039    7.5933 H         1 <0>         0.1355
     44 H19         1.6867   -0.1634   -1.3312 H         1 <0>         0.0687
     45 H20         0.6541   -1.6121   -1.2746 H         1 <0>         0.0492
     46 H21         0.1033   -0.1600   -2.1442 H         1 <0>         0.0552
@<TRIPOS>BOND
     1    1    2 1
     2    1   26 1
     3    1   27 1
     4    1   28 1
     5    2   10 1
     6    2    3 1
     7    2   25 1
     8    3    8 ar
     9    3    4 ar
    10    4    5 ar
    11    4   29 1
    12    5    6 ar
    13    5   30 1
    14    6    7 ar
    15    6   31 1
    16    7    8 ar
    17    7   32 1
    18    8    9 1
    19    9   14 1
    20    9   10 1
    21   10   11 1
    22   10   16 1
    23   11   12 2
    24   12   13 1
    25   12   15 1
    26   13   14 1
    27   13   33 1
    28   13   34 1
    29   14   35 1
    30   14   36 1
    31   15   37 1
    32   16   17 2
    33   16   38 1
    34   17   18 1
    35   17   39 1
    36   18   23 ar
    37   18   19 ar
    38   19   20 ar
    39   19   40 1
    40   20   21 ar
    41   20   41 1
    42   21   22 ar
    43   21   42 1
    44   22   23 ar
    45   22   43 1
    46   23   24 1
    47   25   44 1
    48   25   45 1
    49   25   46 1
@<TRIPOS>MOLECULE
ZINC05561208
   30    32     0     0     0
SMALL
USER_CHARGES
4-hydroxy-5-(indol-3-ylidenemethyl)-3-prop-2-ynyl-thiazol-2-one
@<TRIPOS>ATOM
      1 C1         -2.0658    2.4901    2.4641 C.1       1 <0>        -0.1356
      2 C2         -1.7260    2.2945    1.3575 C.1       1 <0>        -0.2356
      3 C3         -1.3000    2.0493   -0.0300 C.3       1 <0>         0.2042
      4 N1         -0.0197    1.3373   -0.0291 N.am      1 <0>        -0.5246
      5 C4         -0.0000   -0.0056   -0.0226 C.2       1 <0>         0.4185
      6 C5          1.2502   -0.6262   -0.0281 C.2       1 <0>        -0.3147
      7 S1          2.3430    0.7855   -0.0425 S.3       1 <0>         0.0508
      8 C6          1.1370    2.0324   -0.0405 C.2       1 <0>         0.4946
      9 O1          1.2954    3.2391   -0.0479 O.2       1 <0>        -0.4215
     10 C7          1.5619   -1.9844   -0.0228 C.2       1 <0>         0.1125
     11 C8          2.8926   -2.3967   -0.1434 C.2       1 <0>        -0.1774
     12 C9          4.0453   -1.5824   -0.1732 C.2       1 <0>         0.1458
     13 N2          5.1100   -2.3349   -0.2940 N.2       1 <0>        -0.4655
     14 C10         4.8012   -3.6492   -0.3629 C.ar      1 <0>         0.0533
     15 C11         3.3960   -3.7749   -0.2734 C.ar      1 <0>        -0.1090
     16 C12         2.8003   -5.0304   -0.3189 C.ar      1 <0>        -0.0898
     17 C13         3.5868   -6.1544   -0.4519 C.ar      1 <0>        -0.1183
     18 C14         4.9680   -6.0391   -0.5404 C.ar      1 <0>        -0.1167
     19 C15         5.5772   -4.8068   -0.4974 C.ar      1 <0>        -0.0738
     20 O2         -1.1418   -0.7251   -0.0108 O.3       1 <0>        -0.4365
     21 H1         -2.3696    2.6650    3.4539 H         1 <0>         0.2263
     22 H2         -1.1861    3.0011   -0.5487 H         1 <0>         0.1271
     23 H3         -2.0511    1.4456   -0.5393 H         1 <0>         0.1263
     24 H4          0.7758   -2.7185    0.0744 H         1 <0>         0.1492
     25 H5          4.0486   -0.5046   -0.1046 H         1 <0>         0.1704
     26 H6          1.7265   -5.1243   -0.2507 H         1 <0>         0.1205
     27 H7          3.1263   -7.1306   -0.4871 H         1 <0>         0.1272
     28 H8          5.5715   -6.9288   -0.6439 H         1 <0>         0.1290
     29 H9          6.6524   -4.7322   -0.5670 H         1 <0>         0.1280
     30 H10        -1.0036   -1.6822   -0.0070 H         1 <0>         0.4355
@<TRIPOS>BOND
     1    1    2 3
     2    1   21 1
     3    2    3 1
     4    3    4 1
     5    3   22 1
     6    3   23 1
     7    4    8 am
     8    4    5 1
     9    5    6 2
    10    5   20 1
    11    6    7 1
    12    6   10 1
    13    7    8 1
    14    8    9 2
    15   10   11 2
    16   10   24 1
    17   11   15 1
    18   11   12 1
    19   12   13 2
    20   12   25 1
    21   13   14 1
    22   14   19 ar
    23   14   15 ar
    24   15   16 ar
    25   16   17 ar
    26   16   26 1
    27   17   18 ar
    28   17   27 1
    29   18   19 ar
    30   18   28 1
    31   19   29 1
    32   20   30 1
@<TRIPOS>MOLECULE
ZINC28429644
   36    39     0     0     0
SMALL
USER_CHARGES
cyclopropyl-isopropyl-BLAH
@<TRIPOS>ATOM
      1 C1         -7.7472   -2.8249   -0.6123 C.3       1 <0>        -0.1446
      2 C2         -7.6988   -1.7693    0.4942 C.3       1 <0>         0.0002
      3 C3         -8.0822   -2.4115    1.8289 C.3       1 <0>        -0.1444
      4 C4         -6.3045   -1.2056    0.5901 C.2       1 <0>         0.2631
      5 N1         -5.2057   -1.9076    0.8602 N.2       1 <0>        -0.4855
      6 C5         -4.1751   -1.1077    0.8664 C.2       1 <0>         0.2228
      7 N2         -4.5783    0.1611    0.5961 N.pl3     1 <0>        -0.3498
      8 N3         -5.9823    0.0491    0.4219 N.2       1 <0>        -0.3025
      9 C6         -3.6203    1.1609    0.5590 C.2       1 <0>         0.1046
     10 C7         -2.3428    0.8221    0.7913 C.2       1 <0>        -0.1754
     11 S1         -2.4191   -0.9256    1.0770 S.3       1 <0>         0.1879
     12 C8         -1.1540    1.7259    0.8009 C.3       1 <0>         0.1769
     13 H1         -0.8395    1.9184    1.8372 H         1 <0>         0.0702
     14 N4         -1.5407    3.0041    0.1728 N.3       1 <0>        -0.6622
     15 C9         -2.8054    3.4942    0.7380 C.3       1 <0>         0.0457
     16 C10        -3.9689    2.6189    0.2660 C.3       1 <0>        -0.0509
     17 C11        -0.0127    1.0858    0.0080 C.3       1 <0>        -0.2380
     18 C12         0.4603    1.8057   -1.2565 C.3       1 <0>        -0.1172
     19 C13         1.3347    1.8107   -0.0010 C.3       1 <0>        -0.1207
     20 H2         -7.4715   -2.3631   -1.5719 H         1 <0>         0.0562
     21 H3         -8.7650   -3.2363   -0.6823 H         1 <0>         0.0726
     22 H4         -7.0399   -3.6342   -0.3782 H         1 <0>         0.0694
     23 H5         -8.3943   -0.9499    0.2600 H         1 <0>         0.0986
     24 H6         -8.0474   -1.6525    2.6244 H         1 <0>         0.0558
     25 H7         -7.3749   -3.2208    2.0630 H         1 <0>         0.0694
     26 H8         -9.1000   -2.8229    1.7589 H         1 <0>         0.0726
     27 H9         -0.7554    3.7532    0.3523 H         1 <0>         0.3586
     28 H10        -2.7530    3.4622    1.8363 H         1 <0>         0.0431
     29 H11        -2.9771    4.5298    0.4091 H         1 <0>         0.0971
     30 H12        -4.1245    2.7485   -0.8152 H         1 <0>         0.0980
     31 H13        -4.8888    2.8912    0.8041 H         1 <0>         0.0916
     32 H14        -0.3455    0.0641    0.2435 H         1 <0>         0.1108
     33 H15         0.5421    1.0825   -2.0813 H         1 <0>         0.0979
     34 H16        -0.2643    2.5883   -1.5257 H         1 <0>         0.1286
     35 H17         1.3329    2.5975    0.7678 H         1 <0>         0.0980
     36 H18         2.1394    1.0916    0.2121 H         1 <0>         0.1017
@<TRIPOS>BOND
     1    1    2 1
     2    1   20 1
     3    1   21 1
     4    1   22 1
     5    2    3 1
     6    2    4 1
     7    2   23 1
     8    3   24 1
     9    3   25 1
    10    3   26 1
    11    4    8 2
    12    4    5 1
    13    5    6 2
    14    6   11 1
    15    6    7 1
    16    7    8 1
    17    7    9 1
    18    9   16 1
    19    9   10 2
    20   10   11 1
    21   10   12 1
    22   12   13 1
    23   12   14 1
    24   12   17 1
    25   14   15 1
    26   14   27 1
    27   15   16 1
    28   15   28 1
    29   15   29 1
    30   16   30 1
    31   16   31 1
    32   17   19 1
    33   17   18 1
    34   17   32 1
    35   18   19 1
    36   18   33 1
    37   18   34 1
    38   19   35 1
    39   19   36 1
@<TRIPOS>MOLECULE
ZINC40221699
   35    36     0     0     0
SMALL
USER_CHARGES

@<TRIPOS>ATOM
      1 C1         -0.0184    1.5028    0.0103 C.3       1 <0>        -0.0932
      2 C2          0.0021   -0.0041    0.0020 C.2       1 <0>         0.1563
      3 C3          0.0060   -0.7217   -1.1737 C.2       1 <0>        -0.2873
      4 S1          0.0318   -2.3903   -0.5375 S.3       1 <0>         0.1479
      5 C4          0.0348   -2.0122    1.1026 C.2       1 <0>         0.0583
      6 N1          0.0225   -0.6986    1.1125 N.2       1 <0>        -0.5207
      7 C5         -0.0077   -0.2476   -2.5617 C.2       1 <0>         0.6164
      8 O1         -0.0255    0.9462   -2.7967 O.2       1 <0>        -0.5014
      9 N2         -0.0007   -1.1342   -3.5768 N.am      1 <0>        -0.7213
     10 C6         -0.0143   -0.6606   -4.9631 C.3       1 <0>         0.2951
     11 C7         -1.2533    0.2336   -5.1732 C.3       1 <0>        -0.1248
     12 C8         -1.0138    1.1075   -6.3745 C.3       1 <0>        -0.1261
     13 C9         -1.5876    0.5001   -7.6690 C.3       1 <0>        -0.1197
     14 C10        -1.3353   -1.0157   -7.7806 C.3       1 <0>        -0.1230
     15 C11         0.0507   -1.4028   -7.3407 C.3       1 <0>        -0.1134
     16 C12        -0.0030   -1.8112   -5.8543 C.3       1 <0>        -0.1352
     17 C13         1.1963    0.1411   -5.2043 C.1       1 <0>         0.2030
     18 N3          2.1307    0.7599   -5.3905 N.1       1 <0>        -0.4093
     19 H1          1.0042    1.8801    0.0026 H         1 <0>         0.0830
     20 H2         -0.5455    1.8639   -0.8728 H         1 <0>         0.0967
     21 H3         -0.5286    1.8543    0.9071 H         1 <0>         0.0780
     22 H4          0.0481   -2.6877    1.9451 H         1 <0>         0.2275
     23 H5          0.0135   -2.0858   -3.3895 H         1 <0>         0.4082
     24 H6         -2.1307   -0.3904   -5.3433 H         1 <0>         0.0892
     25 H7         -1.4088    0.8566   -4.2924 H         1 <0>         0.0990
     26 H8         -1.4799    2.0778   -6.2034 H         1 <0>         0.0714
     27 H9          0.0597    1.2509   -6.4979 H         1 <0>         0.0627
     28 H10        -2.6622    0.6805   -7.6956 H         1 <0>         0.0647
     29 H11        -1.1286    0.9968   -8.5238 H         1 <0>         0.0617
     30 H12        -2.0617   -1.5407   -7.1603 H         1 <0>         0.0666
     31 H13        -1.4742   -1.3208   -8.8178 H         1 <0>         0.0659
     32 H14         0.4034   -2.2430   -7.9388 H         1 <0>         0.0788
     33 H15         0.7240   -0.5544   -7.4632 H         1 <0>         0.0684
     34 H16         0.8673   -2.4263   -5.6255 H         1 <0>         0.0802
     35 H17        -0.9041   -2.3999   -5.6822 H         1 <0>         0.0964
@<TRIPOS>BOND
     1    1    2 1
     2    1   19 1
     3    1   20 1
     4    1   21 1
     5    2    6 1
     6    2    3 2
     7    3    4 1
     8    3    7 1
     9    4    5 1
    10    5    6 2
    11    5   22 1
    12    7    8 2
    13    7    9 am
    14    9   10 1
    15    9   23 1
    16   10   16 1
    17   10   11 1
    18   10   17 1
    19   11   12 1
    20   11   24 1
    21   11   25 1
    22   12   13 1
    23   12   26 1
    24   12   27 1
    25   13   14 1
    26   13   28 1
    27   13   29 1
    28   14   15 1
    29   14   30 1
    30   14   31 1
    31   15   16 1
    32   15   32 1
    33   15   33 1
    34   16   34 1
    35   16   35 1
    36   17   18 3
@<TRIPOS>MOLECULE
ZINC54334962
   33    35     0     0     0
SMALL
USER_CHARGES

@<TRIPOS>ATOM
      1 C1         -0.0187    1.5258    0.0104 C.3       1 <0>        -0.1353
      2 C2          0.0021   -0.0041    0.0020 C.3       1 <0>        -0.1268
      3 H1         -1.0202   -0.3822    0.0097 H         1 <0>         0.1205
      4 C3          0.7208   -0.4988   -1.2553 C.3       1 <0>         0.1085
      5 N1          1.0243   -1.9243   -1.1163 N.am      1 <0>        -0.7273
      6 C4          1.3654   -2.4446    0.0738 C.2       1 <0>         0.7073
      7 O1          1.7118   -3.6079    0.1352 O.2       1 <0>        -0.5393
      8 N2          1.3326   -1.7101    1.1982 N.am      1 <0>        -0.5265
      9 C5          0.7338   -0.5048    1.2219 C.2       1 <0>         0.5173
     10 O2          0.7835    0.1784    2.2222 O.2       1 <0>        -0.4748
     11 C6          1.9291   -2.2057    2.3628 C.ar      1 <0>         0.1375
     12 C7          3.2510   -1.9316    2.6372 C.ar      1 <0>        -0.0864
     13 C8          3.8543   -2.4200    3.7924 C.ar      1 <0>        -0.1120
     14 C9          3.1576   -3.1802    4.6816 C.ar      1 <0>        -0.0878
     15 C10         1.8070   -3.4822    4.4389 C.ar      1 <0>        -0.0478
     16 C11         1.1807   -2.9856    3.2691 C.ar      1 <0>        -0.0289
     17 C12        -0.1702   -3.2841    3.0306 C.ar      1 <0>        -0.1032
     18 C13        -0.8617   -4.0401    3.9271 C.ar      1 <0>        -0.1066
     19 C14        -0.2485   -4.5236    5.0812 C.ar      1 <0>        -0.1150
     20 C15         1.0628   -4.2650    5.3386 C.ar      1 <0>        -0.1001
     21 H2          1.0039    1.9031    0.0027 H         1 <0>         0.0658
     22 H3         -0.5459    1.8868   -0.8726 H         1 <0>         0.0766
     23 H4         -0.5289    1.8773    0.9072 H         1 <0>         0.0774
     24 H5          0.0796   -0.3470   -2.1236 H         1 <0>         0.1078
     25 H6          1.6481    0.0588   -1.3868 H         1 <0>         0.0795
     26 H7          0.9780   -2.5012   -1.8948 H         1 <0>         0.4266
     27 H8          3.8259   -1.3311    1.9478 H         1 <0>         0.1255
     28 H9          4.8921   -2.1926    3.9866 H         1 <0>         0.1336
     29 H10         3.6428   -3.5511    5.5723 H         1 <0>         0.1350
     30 H11        -0.6585   -2.9154    2.1406 H         1 <0>         0.1138
     31 H12        -1.9009   -4.2683    3.7412 H         1 <0>         0.1251
     32 H13        -0.8195   -5.1206    5.7769 H         1 <0>         0.1272
     33 H14         1.5252   -4.6472    6.2367 H         1 <0>         0.1326
@<TRIPOS>BOND
     1    1    2 1
     2    1   21 1
     3    1   22 1
     4    1   23 1
     5    2    3 1
     6    2    9 1
     7    2    4 1
     8    4    5 1
     9    4   24 1
    10    4   25 1
    11    5    6 am
    12    5   26 1
    13    6    7 2
    14    6    8 am
    15    8    9 am
    16    8   11 1
    17    9   10 2
    18   11   16 ar
    19   11   12 ar
    20   12   13 ar
    21   12   27 1
    22   13   14 ar
    23   13   28 1
    24   14   15 ar
    25   14   29 1
    26   15   20 ar
    27   15   16 ar
    28   16   17 ar
    29   17   18 ar
    30   17   30 1
    31   18   19 ar
    32   18   31 1
    33   19   20 ar
    34   19   32 1
    35   20   33 1
@<TRIPOS>MOLECULE
ZINC63525542
   37    39     0     0     0
SMALL
USER_CHARGES

@<TRIPOS>ATOM
      1 C1         -1.0701    1.0434    0.3532 C.3       1 <0>        -0.1199
      2 C2         -0.6472   -0.4028    0.3810 C.ar      1 <0>        -0.0666
      3 C3         -0.4074   -1.0758   -0.8026 C.ar      1 <0>        -0.1209
      4 C4         -0.0196   -2.4022   -0.7771 C.ar      1 <0>        -0.0895
      5 C5          0.1289   -3.0558    0.4322 C.ar      1 <0>        -0.0843
      6 C6         -0.1100   -2.3828    1.6154 C.ar      1 <0>        -0.0566
      7 C7         -0.4938   -1.0548    1.5900 C.ar      1 <0>        -0.1195
      8 C8          0.0514   -3.0954    2.9335 C.3       1 <0>        -0.1296
      9 C9          0.5508   -4.5023    0.4600 C.3       1 <0>         0.0472
     10 H1          0.2251   -4.9664    1.3909 H         1 <0>         0.1259
     11 C10         2.0579   -4.6037    0.3315 C.2       1 <0>        -0.1404
     12 C11         3.0095   -3.7953    0.7565 C.2       1 <0>        -0.0040
     13 N1          4.2286   -4.3272    0.4864 N.2       1 <0>        -0.1214
     14 N2          4.1941   -5.4150   -0.1036 N.2       1 <0>        -0.1514
     15 C12         2.7837   -5.7442   -0.3457 C.3       1 <0>         0.1959
     16 H2          2.5660   -5.7686   -1.4134 H         1 <0>         0.1629
     17 N3          2.3833   -6.9793    0.3061 N.am      1 <0>        -0.6769
     18 C13         1.1884   -7.5224    0.2180 C.2       1 <0>         0.5283
     19 O1          1.0402   -8.5175    0.8953 O.2       1 <0>        -0.5380
     20 C14         0.0083   -7.1369   -0.5524 C.3       1 <0>        -0.1274
     21 S1         -0.1711   -5.3887   -0.9632 S.3       1 <0>        -0.1868
     22 C15         2.7770   -2.4731    1.4413 C.3       1 <0>        -0.1074
     23 H3         -0.1862    1.6809    0.3771 H         1 <0>         0.0747
     24 H4         -1.6348    1.2393   -0.5583 H         1 <0>         0.0695
     25 H5         -1.6950    1.2560    1.2206 H         1 <0>         0.0693
     26 H6         -0.5234   -0.5652   -1.7472 H         1 <0>         0.1275
     27 H7          0.1671   -2.9281   -1.7017 H         1 <0>         0.1282
     28 H8         -0.6768   -0.5278    2.5148 H         1 <0>         0.1291
     29 H9          1.1035   -3.0983    3.2185 H         1 <0>         0.0785
     30 H10        -0.5307   -2.5812    3.6982 H         1 <0>         0.0753
     31 H11        -0.3018   -4.1221    2.8371 H         1 <0>         0.0671
     32 H12         3.0462   -7.4376    0.8460 H         1 <0>         0.4171
     33 H13         0.0167   -7.7020   -1.4844 H         1 <0>         0.1475
     34 H14        -0.8740   -7.4398    0.0113 H         1 <0>         0.1339
     35 H15         2.6148   -2.6391    2.5063 H         1 <0>         0.0848
     36 H16         3.6486   -1.8336    1.3019 H         1 <0>         0.0816
     37 H17         1.8996   -1.9904    1.0110 H         1 <0>         0.0961
@<TRIPOS>BOND
     1    1    2 1
     2    1   23 1
     3    1   24 1
     4    1   25 1
     5    2    7 ar
     6    2    3 ar
     7    3    4 ar
     8    3   26 1
     9    4    5 ar
    10    4   27 1
    11    5    6 ar
    12    5    9 1
    13    6    7 ar
    14    6    8 1
    15    7   28 1
    16    8   29 1
    17    8   30 1
    18    8   31 1
    19    9   10 1
    20    9   21 1
    21    9   11 1
    22   11   15 1
    23   11   12 2
    24   12   13 1
    25   12   22 1
    26   13   14 2
    27   14   15 1
    28   15   16 1
    29   15   17 1
    30   17   18 am
    31   17   32 1
    32   18   19 2
    33   18   20 1
    34   20   21 1
    35   20   33 1
    36   20   34 1
    37   22   35 1
    38   22   36 1
    39   22   37 1
@<TRIPOS>MOLECULE
ZINC04294175
   40    41     0     0     0
SMALL
USER_CHARGES
7-isobutyl-1,3,3-trimethyl-5-thioxo-9-oxa-4,6-diazabicyclo[4.3.0]nonan-8-one
@<TRIPOS>ATOM
      1 C1          0.1550    1.8188   -2.6161 C.3       1 <0>        -0.1443
      2 C2         -0.0688    0.3068   -2.6849 C.3       1 <0>        -0.0983
      3 C3         -1.5623    0.0054   -2.5451 C.3       1 <0>        -0.1476
      4 C4          0.6974   -0.3744   -1.5493 C.3       1 <0>        -0.1329
      5 C5          0.5899   -1.8931   -1.7006 C.3       1 <0>         0.0955
      6 H1         -0.4548   -2.1893   -1.7944 H         1 <0>         0.1365
      7 C6          1.3789   -2.3569   -2.9088 C.2       1 <0>         0.4876
      8 O1          1.1000   -2.1453   -4.0652 O.2       1 <0>        -0.4075
      9 O2          2.4483   -3.0480   -2.4627 O.3       1 <0>        -0.3265
     10 C7          2.1279   -3.5553   -1.1393 C.3       1 <0>         0.3037
     11 N1          1.2043   -2.5608   -0.5535 N.pl3     1 <0>        -0.5912
     12 C8          1.0501   -2.3517    0.7596 C.2       1 <0>         0.6071
     13 S1         -0.2020   -1.3339    1.3316 S.2       1 <0>        -0.6084
     14 N2          1.8910   -2.9503    1.6277 N.pl3     1 <0>        -0.6694
     15 C9          2.9178   -3.8923    1.1902 C.3       1 <0>         0.1500
     16 C10         3.3699   -3.5877   -0.2418 C.3       1 <0>        -0.1306
     17 C11         2.3530   -5.3131    1.2471 C.3       1 <0>        -0.1806
     18 C12         4.1219   -3.7927    2.1289 C.3       1 <0>        -0.1546
     19 C13         1.4667   -4.9322   -1.2272 C.3       1 <0>        -0.1827
     20 H2         -0.2037    2.1959   -1.6584 H         1 <0>         0.0591
     21 H3          1.2190    2.0335   -2.7157 H         1 <0>         0.0522
     22 H4         -0.3909    2.3041   -3.4252 H         1 <0>         0.0590
     23 H5          0.2898   -0.0704   -3.6426 H         1 <0>         0.0779
     24 H6         -1.9009    0.2994   -1.5516 H         1 <0>         0.0642
     25 H7         -2.1178    0.5642   -3.2983 H         1 <0>         0.0576
     26 H8         -1.7323   -1.0620   -2.6859 H         1 <0>         0.0503
     27 H9          1.7457   -0.0785   -1.5895 H         1 <0>         0.0657
     28 H10         0.2715   -0.0736   -0.5920 H         1 <0>         0.1281
     29 H11         1.8112   -2.7487    2.5731 H         1 <0>         0.4335
     30 H12         4.0517   -4.3656   -0.5855 H         1 <0>         0.1176
     31 H13         3.8709   -2.6201   -0.2721 H         1 <0>         0.0968
     32 H14         2.8877   -5.9453    0.5382 H         1 <0>         0.0812
     33 H15         2.4749   -5.7125    2.2540 H         1 <0>         0.0738
     34 H16         1.2940   -5.2937    0.9897 H         1 <0>         0.0745
     35 H17         4.5366   -2.7858    2.0823 H         1 <0>         0.0703
     36 H18         3.8058   -4.0085    3.1495 H         1 <0>         0.0753
     37 H19         4.8811   -4.5128    1.8237 H         1 <0>         0.0849
     38 H20         0.9176   -5.0123   -2.1654 H         1 <0>         0.0773
     39 H21         2.2330   -5.7064   -1.1875 H         1 <0>         0.0982
     40 H22         0.7786   -5.0589   -0.3914 H         1 <0>         0.0969
@<TRIPOS>BOND
     1    1    2 1
     2    1   20 1
     3    1   21 1
     4    1   22 1
     5    2    3 1
     6    2    4 1
     7    2   23 1
     8    3   24 1
     9    3   25 1
    10    3   26 1
    11    4    5 1
    12    4   27 1
    13    4   28 1
    14    5    6 1
    15    5   11 1
    16    5    7 1
    17    7    8 2
    18    7    9 1
    19    9   10 1
    20   10   16 1
    21   10   11 1
    22   10   19 1
    23   11   12 1
    24   12   13 2
    25   12   14 1
    26   14   15 1
    27   14   29 1
    28   15   16 1
    29   15   17 1
    30   15   18 1
    31   16   30 1
    32   16   31 1
    33   17   32 1
    34   17   33 1
    35   17   34 1
    36   18   35 1
    37   18   36 1
    38   18   37 1
    39   19   38 1
    40   19   39 1
    41   19   40 1
@<TRIPOS>MOLECULE
ZINC15669890
   34    36     0     0     0
SMALL
USER_CHARGES
5-chloro-3,4-dimethyl-1-(p-tolyl)-7H-pyrazolo[4,5-e]pyridin-6-one
@<TRIPOS>ATOM
      1 C1          3.4810   10.0680    0.0264 C.3       1 <0>        -0.1194
      2 C2          2.4812    8.9404    0.0288 C.ar      1 <0>        -0.0783
      3 C3          1.2826    9.0796   -0.6465 C.ar      1 <0>        -0.0969
      4 C4          0.3641    8.0481   -0.6457 C.ar      1 <0>        -0.0961
      5 C5          0.6453    6.8705    0.0341 C.ar      1 <0>         0.1330
      6 C6          1.8475    6.7358    0.7156 C.ar      1 <0>        -0.1354
      7 C7          2.7642    7.7689    0.7067 C.ar      1 <0>        -0.0926
      8 N1         -0.2848    5.8223    0.0371 N.pl3     1 <0>        -0.3239
      9 C8          0.0111    4.4958    0.0266 C.2       1 <0>         0.3568
     10 C9         -1.2051    3.8097    0.0346 C.2       1 <0>        -0.2560
     11 C10        -1.2079    2.3956    0.0208 C.2       1 <0>         0.0961
     12 C11        -0.0215    1.7317    0.0116 C.2       1 <0>        -0.1964
     13 C12         1.1880    2.4524    0.0039 C.2       1 <0>         0.5603
     14 O1          2.2484    1.8494   -0.0099 O.2       1 <0>        -0.5107
     15 N2          1.1887    3.7987    0.0112 N.am      1 <0>        -0.6036
     16 H1          2.0315    4.2789    0.0057 H         1 <0>         0.4179
     17 Cl1         0.0021   -0.0041    0.0020 Cl        1 <0>        -0.0199
     18 C13        -2.5086    1.6345    0.0228 C.3       1 <0>        -0.1391
     19 C14        -2.2318    4.7828    0.0502 C.2       1 <0>         0.1527
     20 N3         -1.6776    5.9624    0.0515 N.2       1 <0>        -0.2602
     21 C15        -3.7126    4.5032    0.0626 C.3       1 <0>        -0.0873
     22 H2          3.2889   10.7258    0.8741 H         1 <0>         0.0769
     23 H3          4.4888    9.6602    0.1040 H         1 <0>         0.0714
     24 H4          3.3884   10.6337   -0.9007 H         1 <0>         0.0718
     25 H5          1.0646    9.9957   -1.1754 H         1 <0>         0.1376
     26 H6         -0.5721    8.1575   -1.1730 H         1 <0>         0.1389
     27 H7          2.0673    5.8226    1.2486 H         1 <0>         0.1251
     28 H8          3.7012    7.6631    1.2333 H         1 <0>         0.1379
     29 H9         -2.3033    0.5641    0.0160 H         1 <0>         0.0866
     30 H10        -3.0775    1.8897    0.9169 H         1 <0>         0.0920
     31 H11        -3.0859    1.8994   -0.8630 H         1 <0>         0.0920
     32 H12        -4.0598    4.4297    1.0932 H         1 <0>         0.0919
     33 H13        -4.2395    5.3135   -0.4414 H         1 <0>         0.0858
     34 H14        -3.9094    3.5644   -0.4551 H         1 <0>         0.0911
@<TRIPOS>BOND
     1    1    2 1
     2    1   22 1
     3    1   23 1
     4    1   24 1
     5    2    7 ar
     6    2    3 ar
     7    3    4 ar
     8    3   25 1
     9    4    5 ar
    10    4   26 1
    11    5    6 ar
    12    5    8 1
    13    6    7 ar
    14    6   27 1
    15    7   28 1
    16    8   20 1
    17    8    9 1
    18    9   15 1
    19    9   10 2
    20   10   11 1
    21   10   19 1
    22   11   12 2
    23   11   18 1
    24   12   13 1
    25   12   17 1
    26   13   14 2
    27   13   15 am
    28   15   16 1
    29   18   29 1
    30   18   30 1
    31   18   31 1
    32   19   20 2
    33   19   21 1
    34   21   32 1
    35   21   33 1
    36   21   34 1
@<TRIPOS>MOLECULE
ZINC00337613
   39    41     0     0     0
SMALL
USER_CHARGES

@<TRIPOS>ATOM
      1 C1         -0.0187    1.5258    0.0104 C.3       1 <0>        -0.1648
      2 C2          0.0021   -0.0041    0.0020 C.3       1 <0>         0.1669
      3 C3          0.7421   -0.5109    1.2415 C.3       1 <0>        -0.1644
      4 C4         -1.4333   -0.5336    0.0129 C.3       1 <0>        -0.1567
      5 N1          0.6878   -0.4765   -1.2033 N.am      1 <0>        -0.7131
      6 C5          1.9715   -0.1323   -1.4270 C.2       1 <0>         0.5839
      7 O1          2.5607    0.5708   -0.6281 O.2       1 <0>        -0.5331
      8 C6          2.6602   -0.6068   -2.6376 C.2       1 <0>        -0.2854
      9 C7          3.9887   -0.2740   -2.8962 C.2       1 <0>         0.0824
     10 C8          4.5675   -0.7414   -4.0924 C.ar      1 <0>        -0.1705
     11 C9          6.0080   -0.6193   -4.3278 C.ar      1 <0>         0.0080
     12 C10         6.8550   -0.0214   -3.3916 C.ar      1 <0>        -0.1222
     13 C11         8.1919    0.0707   -3.6520 C.ar      1 <0>        -0.0848
     14 C12         8.7227   -0.4235   -4.8392 C.ar      1 <0>        -0.1211
     15 C13         7.9231   -1.0120   -5.7730 C.ar      1 <0>        -0.0847
     16 C14         6.5438   -1.1237   -5.5362 C.ar      1 <0>        -0.0817
     17 C15         5.6871   -1.7270   -6.4785 C.ar      1 <0>        -0.0219
     18 C16         4.3528   -1.8249   -6.2518 C.ar      1 <0>        -0.1439
     19 C17         3.7687   -1.3382   -5.0790 C.ar      1 <0>         0.1835
     20 O2          2.4283   -1.4198   -4.9033 O.3       1 <0>        -0.2659
     21 C18         1.9778   -1.4590   -3.6258 C.2       1 <0>         0.5234
     22 O3          1.0415   -2.1682   -3.3064 O.2       1 <0>        -0.4392
     23 H1          1.0039    1.9031    0.0027 H         1 <0>         0.0785
     24 H2         -0.5459    1.8868   -0.8726 H         1 <0>         0.0540
     25 H3         -0.5289    1.8773    0.9072 H         1 <0>         0.0654
     26 H4          0.2319   -0.1594    2.1383 H         1 <0>         0.0651
     27 H5          0.7568   -1.6008    1.2356 H         1 <0>         0.0549
     28 H6          1.7647   -0.1336    1.2338 H         1 <0>         0.0782
     29 H7         -1.9605   -0.1726   -0.8702 H         1 <0>         0.0624
     30 H8         -1.4185   -1.6235    0.0069 H         1 <0>         0.0639
     31 H9         -1.9435   -0.1821    0.9097 H         1 <0>         0.0761
     32 H10         0.2179   -1.0371   -1.8404 H         1 <0>         0.4083
     33 H11         4.5574    0.3247   -2.2003 H         1 <0>         0.1651
     34 H12         6.4543    0.3663   -2.4667 H         1 <0>         0.1344
     35 H13         8.8457    0.5334   -2.9274 H         1 <0>         0.1327
     36 H14         9.7835   -0.3394   -5.0236 H         1 <0>         0.1313
     37 H15         8.3486   -1.3912   -6.6904 H         1 <0>         0.1361
     38 H16         6.0996   -2.1186   -7.3966 H         1 <0>         0.1491
     39 H17         3.7257   -2.2911   -6.9973 H         1 <0>         0.1496
@<TRIPOS>BOND
     1    1    2 1
     2    1   23 1
     3    1   24 1
     4    1   25 1
     5    2    3 1
     6    2    4 1
     7    2    5 1
     8    3   26 1
     9    3   27 1
    10    3   28 1
    11    4   29 1
    12    4   30 1
    13    4   31 1
    14    5    6 am
    15    5   32 1
    16    6    7 2
    17    6    8 1
    18    8   21 1
    19    8    9 2
    20    9   10 1
    21    9   33 1
    22   10   19 ar
    23   10   11 ar
    24   11   16 ar
    25   11   12 ar
    26   12   13 ar
    27   12   34 1
    28   13   14 ar
    29   13   35 1
    30   14   15 ar
    31   14   36 1
    32   15   16 ar
    33   15   37 1
    34   16   17 ar
    35   17   18 ar
    36   17   38 1
    37   18   19 ar
    38   18   39 1
    39   19   20 1
    40   20   21 1
    41   21   22 2
@<TRIPOS>MOLECULE
ZINC49177731
   44    45     0     0     0
SMALL
USER_CHARGES

@<TRIPOS>ATOM
      1 C1         -0.3527    1.4250   -0.0950 C.3       1 <0>        -0.1140
      2 C2         -0.0754   -0.0556   -0.0525 C.ar      1 <0>        -0.0613
      3 C3          0.2584   -0.7294   -1.2130 C.ar      1 <0>        -0.1434
      4 C4          0.5136   -2.0880   -1.1782 C.ar      1 <0>        -0.0604
      5 C5          0.4354   -2.7764    0.0166 C.ar      1 <0>        -0.1632
      6 C6          0.1004   -2.1027    1.1838 C.ar      1 <0>         0.1692
      7 C7         -0.1493   -0.7371    1.1465 C.ar      1 <0>        -0.1512
      8 N1          0.0199   -2.7974    2.3959 N.am      1 <0>        -0.6816
      9 C8          0.1482   -2.1345    3.5624 C.2       1 <0>         0.7110
     10 O1          0.1598   -0.9188    3.5726 O.2       1 <0>        -0.5629
     11 N2          0.2636   -2.8193    4.7175 N.am      1 <0>        -0.6267
     12 C9          0.4005   -4.2845    4.7190 C.3       1 <0>         0.0795
     13 C10        -0.6306   -4.8653    5.6935 C.3       1 <0>         0.0710
     14 H1         -1.6344   -4.7021    5.3014 H         1 <0>         0.0682
     15 O2         -0.5006   -4.2142    6.9596 O.3       1 <0>        -0.3643
     16 C11        -0.7671   -2.8100    6.9256 C.3       1 <0>         0.0990
     17 C12         0.2626   -2.1234    6.0140 C.3       1 <0>         0.1073
     18 C13        -0.6592   -2.2351    8.3394 C.3       1 <0>        -0.1379
     19 C14        -2.1769   -2.5704    6.3816 C.3       1 <0>        -0.1749
     20 C15        -0.3856   -6.3662    5.8620 C.3       1 <0>        -0.1458
     21 C16         0.8770   -2.8183   -2.4453 C.3       1 <0>        -0.1140
     22 H2          0.5757    1.9733    0.0649 H         1 <0>         0.0716
     23 H3         -0.7678    1.6892   -1.0677 H         1 <0>         0.0665
     24 H4         -1.0666    1.6836    0.6870 H         1 <0>         0.0673
     25 H5          0.3196   -0.1934   -2.1486 H         1 <0>         0.1212
     26 H6          0.6341   -3.8376    0.0431 H         1 <0>         0.1216
     27 H7         -0.4057   -0.2095    2.0533 H         1 <0>         0.1653
     28 H8         -0.1283   -3.7560    2.3966 H         1 <0>         0.4054
     29 H9          0.2169   -4.6714    3.7167 H         1 <0>         0.0839
     30 H10         1.4051   -4.5590    5.0408 H         1 <0>         0.0840
     31 H11         1.2536   -2.1840    6.4639 H         1 <0>         0.0781
     32 H12        -0.0122   -1.0785    5.8696 H         1 <0>         0.1047
     33 H13         0.3462   -2.4045    8.7247 H         1 <0>         0.0676
     34 H14        -0.8624   -1.1645    8.3127 H         1 <0>         0.0761
     35 H15        -1.3845   -2.7266    8.9878 H         1 <0>         0.0702
     36 H16        -2.9041   -3.0623    7.0275 H         1 <0>         0.0674
     37 H17        -2.3793   -1.4996    6.3560 H         1 <0>         0.0704
     38 H18        -2.2516   -2.9784    5.3736 H         1 <0>         0.0573
     39 H19         0.6178   -6.5286    6.2558 H         1 <0>         0.0679
     40 H20        -1.1190   -6.7785    6.5549 H         1 <0>         0.0706
     41 H21        -0.4809   -6.8607    4.8953 H         1 <0>         0.0742
     42 H22         1.9591   -2.8031   -2.5758 H         1 <0>         0.0713
     43 H23         0.5333   -3.8507   -2.3810 H         1 <0>         0.0658
     44 H24         0.4016   -2.3294   -3.2956 H         1 <0>         0.0680
@<TRIPOS>BOND
     1    1    2 1
     2    1   22 1
     3    1   23 1
     4    1   24 1
     5    2    7 ar
     6    2    3 ar
     7    3    4 ar
     8    3   25 1
     9    4    5 ar
    10    4   21 1
    11    5    6 ar
    12    5   26 1
    13    6    7 ar
    14    6    8 1
    15    7   27 1
    16    8    9 am
    17    8   28 1
    18    9   10 2
    19    9   11 am
    20   11   17 1
    21   11   12 1
    22   12   13 1
    23   12   29 1
    24   12   30 1
    25   13   14 1
    26   13   15 1
    27   13   20 1
    28   15   16 1
    29   16   17 1
    30   16   18 1
    31   16   19 1
    32   17   31 1
    33   17   32 1
    34   18   33 1
    35   18   34 1
    36   18   35 1
    37   19   36 1
    38   19   37 1
    39   19   38 1
    40   20   39 1
    41   20   40 1
    42   20   41 1
    43   21   42 1
    44   21   43 1
    45   21   44 1
@<TRIPOS>MOLECULE
ZINC62320977
   47    50     0     0     0
SMALL
USER_CHARGES

@<TRIPOS>ATOM
      1 C1         -0.0180    1.5263    0.0113 C.3       1 <0>        -0.1287
      2 C2          0.0070   -0.0035    0.0066 C.3       1 <0>        -0.0194
      3 C3         -1.4268   -0.5345    0.0028 C.3       1 <0>         0.0641
      4 N1         -2.0362   -0.2504    1.3098 N.3       1 <0>        -0.5263
      5 C4         -3.4958   -0.4106    1.2598 C.3       1 <0>         0.0414
      6 C5         -4.1007    0.0591    2.5874 C.3       1 <0>         0.1156
      7 N2         -3.4303   -0.6523    3.6862 N.am      1 <0>        -0.6310
      8 C6         -1.9596   -0.6525    3.7220 C.3       1 <0>         0.1446
      9 C7         -1.4430   -1.0966    2.3490 C.3       1 <0>         0.1154
     10 H1         -1.7296   -2.1337    2.1753 H         1 <0>         0.0563
     11 C8          0.0587   -1.0014    2.3207 C.ar      1 <0>        -0.0751
     12 C9          0.7354   -0.4957    1.2307 C.ar      1 <0>        -0.0534
     13 C10         2.1201   -0.4310    1.2473 C.ar      1 <0>        -0.1174
     14 C11         2.8259   -0.8678    2.3508 C.ar      1 <0>        -0.1168
     15 C12         2.1483   -1.3722    3.4447 C.ar      1 <0>        -0.1192
     16 C13         0.7695   -1.4385    3.4287 C.ar      1 <0>        -0.1146
     17 C14        -4.1449   -1.2874    4.6362 C.2       1 <0>         0.7128
     18 O1         -3.5770   -1.9497    5.4831 O.2       1 <0>        -0.5844
     19 N3         -5.4890   -1.1883    4.6474 N.am      1 <0>        -0.7175
     20 C15        -6.2585   -1.7870    5.7409 C.3       1 <0>         0.0982
     21 C16        -7.5259   -2.5605    5.3720 C.3       1 <0>        -0.1949
     22 C17        -7.6343   -1.1910    6.0454 C.3       1 <0>        -0.1896
     23 C18         0.7318   -0.4956   -1.2478 C.3       1 <0>        -0.1434
     24 H2          1.0036    1.9064    0.0046 H         1 <0>         0.0522
     25 H3         -0.5446    1.8838   -0.8735 H         1 <0>         0.0557
     26 H4         -0.5308    1.8785    0.9064 H         1 <0>         0.0672
     27 H5         -1.9981   -0.0395   -0.7826 H         1 <0>         0.0835
     28 H6         -1.4179   -1.6105   -0.1706 H         1 <0>         0.0399
     29 H7         -3.9001    0.1880    0.4435 H         1 <0>         0.0935
     30 H8         -3.7416   -1.4603    1.0989 H         1 <0>         0.0411
     31 H9         -3.9482    1.1325    2.6996 H         1 <0>         0.0817
     32 H10        -5.1673   -0.1652    2.6033 H         1 <0>         0.0799
     33 H11        -1.5975    0.3515    3.9433 H         1 <0>         0.0775
     34 H12        -1.6110   -1.3460    4.4873 H         1 <0>         0.1011
     35 H13         2.6496   -0.0371    0.3924 H         1 <0>         0.1231
     36 H14         3.9046   -0.8158    2.3589 H         1 <0>         0.1223
     37 H15         2.6964   -1.7137    4.3104 H         1 <0>         0.1236
     38 H16         0.2411   -1.8328    4.2841 H         1 <0>         0.1244
     39 H17        -5.9468   -0.7207    3.9314 H         1 <0>         0.3962
     40 H18        -5.6715   -2.1541    6.5828 H         1 <0>         0.1392
     41 H19        -7.7872   -2.6241    4.3156 H         1 <0>         0.0956
     42 H20        -7.7729   -3.4370    5.9711 H         1 <0>         0.1036
     43 H21        -7.9527   -1.1664    7.0875 H         1 <0>         0.1053
     44 H22        -7.9670   -0.3535    5.4321 H         1 <0>         0.0965
     45 H23         1.7531   -0.1148   -1.2503 H         1 <0>         0.0632
     46 H24         0.7504   -1.5855   -1.2526 H         1 <0>         0.0560
     47 H25         0.2082   -0.1373   -2.1341 H         1 <0>         0.0610
@<TRIPOS>BOND
     1    1    2 1
     2    1   24 1
     3    1   25 1
     4    1   26 1
     5    2   12 1
     6    2    3 1
     7    2   23 1
     8    3    4 1
     9    3   27 1
    10    3   28 1
    11    4    9 1
    12    4    5 1
    13    5    6 1
    14    5   29 1
    15    5   30 1
    16    6    7 1
    17    6   31 1
    18    6   32 1
    19    7    8 1
    20    7   17 am
    21    8    9 1
    22    8   33 1
    23    8   34 1
    24    9   10 1
    25    9   11 1
    26   11   16 ar
    27   11   12 ar
    28   12   13 ar
    29   13   14 ar
    30   13   35 1
    31   14   15 ar
    32   14   36 1
    33   15   16 ar
    34   15   37 1
    35   16   38 1
    36   17   18 2
    37   17   19 am
    38   19   20 1
    39   19   39 1
    40   20   22 1
    41   20   21 1
    42   20   40 1
    43   21   22 1
    44   21   41 1
    45   21   42 1
    46   22   43 1
    47   22   44 1
    48   23   45 1
    49   23   46 1
    50   23   47 1
@<TRIPOS>MOLECULE
ZINC00333976
   28    30     0     0     0
SMALL
USER_CHARGES
2-(4-chlorophenyl)-5-hydroxy-benzofuran-3-carbaldehyde
@<TRIPOS>ATOM
      1 C1          5.5138    3.6307    0.2269 C.ar      1 <0>        -0.0679
      2 C2          6.8613    3.7440   -0.0408 C.ar      1 <0>        -0.1157
      3 C3          7.4379    2.9822   -1.0440 C.ar      1 <0>        -0.0104
      4 C4          6.6667    2.0989   -1.7818 C.ar      1 <0>        -0.1119
      5 C5          5.3189    1.9725   -1.5218 C.ar      1 <0>        -0.0341
      6 C6          4.7306    2.7378   -0.5105 C.ar      1 <0>        -0.0492
      7 C7          3.2901    2.6084   -0.2272 C.2       1 <0>         0.1853
      8 C8          2.6212    1.4134    0.0171 C.2       1 <0>        -0.2754
      9 C9          1.2118    1.7926    0.2435 C.ar      1 <0>        -0.0775
     10 C10         0.0542    1.0766    0.5322 C.ar      1 <0>        -0.1056
     11 C11        -1.1449    1.7489    0.6845 C.ar      1 <0>         0.1076
     12 C12        -1.1875    3.1338    0.5606 C.ar      1 <0>        -0.1185
     13 C13        -0.0441    3.8483    0.2748 C.ar      1 <0>        -0.0772
     14 C14         1.1684    3.1880    0.1128 C.ar      1 <0>         0.0371
     15 O1          2.4161    3.6243   -0.1645 O.3       1 <0>        -0.1719
     16 O2         -2.2819    1.0563    0.9606 O.3       1 <0>        -0.4926
     17 C15         3.1734    0.1117    0.0427 C.2       1 <0>         0.4021
     18 O3          4.3731   -0.0412   -0.0667 O.2       1 <0>        -0.4582
     19 Cl1         9.1345    3.1355   -1.3785 Cl        1 <0>        -0.0581
     20 H1          5.0648    4.2280    1.0067 H         1 <0>         0.1392
     21 H2          7.4682    4.4312    0.5302 H         1 <0>         0.1432
     22 H3          7.1225    1.5083   -2.5628 H         1 <0>         0.1438
     23 H4          4.7187    1.2841   -2.0982 H         1 <0>         0.1365
     24 H5          0.0910    0.0019    0.6323 H         1 <0>         0.1404
     25 H6         -2.1259    3.6535    0.6855 H         1 <0>         0.1469
     26 H7         -0.0902    4.9228    0.1769 H         1 <0>         0.1425
     27 H8         -2.4529    0.9415    1.9054 H         1 <0>         0.3951
     28 H9          2.5281   -0.7464    0.1596 H         1 <0>         0.1045
@<TRIPOS>BOND
     1    1    6 ar
     2    1    2 ar
     3    1   20 1
     4    2    3 ar
     5    2   21 1
     6    3    4 ar
     7    3   19 1
     8    4    5 ar
     9    4   22 1
    10    5    6 ar
    11    5   23 1
    12    6    7 1
    13    7   15 1
    14    7    8 2
    15    8    9 1
    16    8   17 1
    17    9   14 ar
    18    9   10 ar
    19   10   11 ar
    20   10   24 1
    21   11   12 ar
    22   11   16 1
    23   12   13 ar
    24   12   25 1
    25   13   14 ar
    26   13   26 1
    27   14   15 1
    28   16   27 1
    29   17   18 2
    30   17   28 1
@<TRIPOS>MOLECULE
ZINC19840052
   42    44     0     0     0
SMALL
USER_CHARGES
[(3S,5R)-3,5-dimethyl-1-piperidyl]-(1-hydroxy-2-naphthyl)methanone
@<TRIPOS>ATOM
      1 C1         -9.5114    0.9550    1.5594 C.3       1 <0>        -0.1472
      2 C2         -8.1145    1.5762    1.4987 C.3       1 <0>        -0.1067
      3 H1         -7.5517    1.2959    2.4013 H         1 <0>         0.0737
      4 C3         -8.2358    3.0999    1.4235 C.3       1 <0>        -0.1108
      5 C4         -6.8387    3.7239    1.3958 C.3       1 <0>        -0.1075
      6 H2         -6.2837    3.4265    2.2978 H         1 <0>         0.0736
      7 C5         -6.0901    3.2364    0.1566 C.3       1 <0>         0.1029
      8 N1         -6.0957    1.7672    0.1414 N.am      1 <0>        -0.6077
      9 C6         -7.3809    1.0644    0.2550 C.3       1 <0>         0.1151
     10 C7         -4.9432    1.0773    0.0308 C.2       1 <0>         0.5744
     11 O1         -4.9659   -0.1363   -0.0462 O.2       1 <0>        -0.5274
     12 C8         -3.6558    1.7932    0.0034 C.ar      1 <0>        -0.1912
     13 C9         -3.4502    2.8278   -0.9284 C.ar      1 <0>        -0.0506
     14 C10        -2.2780    3.5082   -0.9667 C.ar      1 <0>        -0.1530
     15 C11        -1.2363    3.1761   -0.0785 C.ar      1 <0>        -0.0039
     16 C12        -0.0096    3.8591   -0.1152 C.ar      1 <0>        -0.1123
     17 C13         0.9803    3.5165    0.7553 C.ar      1 <0>        -0.0998
     18 C14         0.7959    2.4958    1.6847 C.ar      1 <0>        -0.1175
     19 C15        -0.3801    1.8117    1.7486 C.ar      1 <0>        -0.1022
     20 C16        -1.4212    2.1346    0.8633 C.ar      1 <0>        -0.1255
     21 C17        -2.6490    1.4420    0.8994 C.ar      1 <0>         0.2257
     22 O2         -2.8472    0.4463    1.7960 O.3       1 <0>        -0.4804
     23 C18        -6.9610    5.2484    1.3546 C.3       1 <0>        -0.1473
     24 H3        -10.0377    1.3228    2.4526 H         1 <0>         0.0597
     25 H4         -9.4237   -0.1403    1.6105 H         1 <0>         0.0587
     26 H5        -10.0770    1.2359    0.6588 H         1 <0>         0.0577
     27 H6         -8.7799    3.3797    0.5093 H         1 <0>         0.0661
     28 H7         -8.7837    3.4680    2.3034 H         1 <0>         0.0672
     29 H8         -6.5882    3.6186   -0.7466 H         1 <0>         0.0704
     30 H9         -5.0534    3.6031    0.1866 H         1 <0>         0.0938
     31 H10        -7.2071   -0.0175    0.3511 H         1 <0>         0.0933
     32 H11        -7.9929    1.2595   -0.6380 H         1 <0>         0.0681
     33 H12        -4.2400    3.0888   -1.6172 H         1 <0>         0.1328
     34 H13        -2.1382    4.2993   -1.6886 H         1 <0>         0.1343
     35 H14         0.1479    4.6529   -0.8304 H         1 <0>         0.1329
     36 H15         1.9222    4.0440    0.7241 H         1 <0>         0.1281
     37 H16         1.5966    2.2429    2.3639 H         1 <0>         0.1283
     38 H17        -0.5098    1.0219    2.4737 H         1 <0>         0.1253
     39 H18        -2.0479    0.1738    2.5009 H         1 <0>         0.4326
     40 H19        -5.9566    5.6964    1.3347 H         1 <0>         0.0580
     41 H20        -7.5005    5.5972    2.2475 H         1 <0>         0.0602
     42 H21        -7.5139    5.5476    0.4520 H         1 <0>         0.0583
@<TRIPOS>BOND
     1    1    2 1
     2    1   24 1
     3    1   25 1
     4    1   26 1
     5    2    3 1
     6    2    9 1
     7    2    4 1
     8    4    5 1
     9    4   27 1
    10    4   28 1
    11    5    6 1
    12    5    7 1
    13    5   23 1
    14    7    8 1
    15    7   29 1
    16    7   30 1
    17    8    9 1
    18    8   10 am
    19    9   31 1
    20    9   32 1
    21   10   11 2
    22   10   12 1
    23   12   21 ar
    24   12   13 ar
    25   13   14 ar
    26   13   33 1
    27   14   15 ar
    28   14   34 1
    29   15   20 ar
    30   15   16 ar
    31   16   17 ar
    32   16   35 1
    33   17   18 ar
    34   17   36 1
    35   18   19 ar
    36   18   37 1
    37   19   20 ar
    38   19   38 1
    39   20   21 ar
    40   21   22 1
    41   22   39 1
    42   23   40 1
    43   23   41 1
    44   23   42 1
@<TRIPOS>MOLECULE
ZINC00073672
   34    36     0     0     0
SMALL
USER_CHARGES

@<TRIPOS>ATOM
      1 C1         -0.1946    1.4902    0.0278 C.3       1 <0>        -0.1326
      2 C2         -0.0809   -0.0124    0.0116 C.2       1 <0>         0.0315
      3 C3         -0.1824   -0.7608   -1.2430 C.ar      1 <0>        -0.1579
      4 C4         -0.3877   -0.1019   -2.4607 C.ar      1 <0>        -0.0404
      5 C5         -0.4782   -0.8235   -3.6153 C.ar      1 <0>        -0.1646
      6 C6         -0.3676   -2.2126   -3.5901 C.ar      1 <0>         0.1659
      7 C7         -0.1643   -2.8809   -2.3941 C.ar      1 <0>        -0.1645
      8 C8         -0.0699   -2.1632   -1.2112 C.ar      1 <0>         0.1631
      9 O1          0.1286   -2.7951   -0.0346 O.3       1 <0>        -0.2692
     10 C9          0.2227   -2.1150    1.1188 C.2       1 <0>         0.5168
     11 O2          0.4021   -2.7276    2.1560 O.2       1 <0>        -0.4551
     12 C10         0.1244   -0.7090    1.1596 C.2       1 <0>        -0.2150
     13 C11         0.2416    0.0187    2.4741 C.3       1 <0>        -0.0243
     14 C12         1.6948    0.2804    2.7755 C.ar      1 <0>        -0.0822
     15 C13         2.4597   -0.6937    3.3893 C.ar      1 <0>        -0.1078
     16 C14         3.7927   -0.4537    3.6658 C.ar      1 <0>        -0.1190
     17 C15         4.3608    0.7605    3.3280 C.ar      1 <0>        -0.1211
     18 C16         3.5961    1.7343    2.7134 C.ar      1 <0>        -0.1215
     19 C17         2.2642    1.4926    2.4331 C.ar      1 <0>        -0.1175
     20 O3         -0.4602   -2.9163   -4.7472 O.3       1 <0>        -0.4908
     21 H1          0.8018    1.9305   -0.0093 H         1 <0>         0.0930
     22 H2         -0.7701    1.8204   -0.8371 H         1 <0>         0.0812
     23 H3         -0.6979    1.8067    0.9414 H         1 <0>         0.0888
     24 H4         -0.4746    0.9743   -2.4863 H         1 <0>         0.1457
     25 H5         -0.6370   -0.3149   -4.5548 H         1 <0>         0.1431
     26 H6         -0.0795   -3.9576   -2.3827 H         1 <0>         0.1510
     27 H7         -0.2934    0.9665    2.4137 H         1 <0>         0.0918
     28 H8         -0.1897   -0.5921    3.2672 H         1 <0>         0.0933
     29 H9          2.0158   -1.6423    3.6531 H         1 <0>         0.1296
     30 H10         4.3901   -1.2145    4.1459 H         1 <0>         0.1224
     31 H11         5.4021    0.9483    3.5447 H         1 <0>         0.1213
     32 H12         4.0399    2.6830    2.4499 H         1 <0>         0.1220
     33 H13         1.6677    2.2521    1.9495 H         1 <0>         0.1210
     34 H14         0.3867   -3.0527   -5.1936 H         1 <0>         0.4018
@<TRIPOS>BOND
     1    1    2 1
     2    1   21 1
     3    1   22 1
     4    1   23 1
     5    2   12 2
     6    2    3 1
     7    3    8 ar
     8    3    4 ar
     9    4    5 ar
    10    4   24 1
    11    5    6 ar
    12    5   25 1
    13    6    7 ar
    14    6   20 1
    15    7    8 ar
    16    7   26 1
    17    8    9 1
    18    9   10 1
    19   10   11 2
    20   10   12 1
    21   12   13 1
    22   13   14 1
    23   13   27 1
    24   13   28 1
    25   14   19 ar
    26   14   15 ar
    27   15   16 ar
    28   15   29 1
    29   16   17 ar
    30   16   30 1
    31   17   18 ar
    32   17   31 1
    33   18   19 ar
    34   18   32 1
    35   19   33 1
    36   20   34 1
@<TRIPOS>MOLECULE
ZINC43323653
   40    41     0     0     0
SMALL
USER_CHARGES

@<TRIPOS>ATOM
      1 C1          0.1663    1.5696    1.2571 C.3       1 <0>        -0.1577
      2 C2          0.1715    0.0721    0.9433 C.3       1 <0>        -0.1164
      3 C3         -1.2565   -0.3925    0.6504 C.3       1 <0>        -0.1039
      4 H1         -1.6810    0.2170   -0.1473 H         1 <0>         0.0755
      5 C4         -1.2374   -1.8601    0.2168 C.3       1 <0>        -0.1162
      6 C5         -2.6616   -2.3164   -0.1080 C.3       1 <0>        -0.1358
      7 C6         -3.5313   -2.1945    1.1472 C.3       1 <0>         0.1067
      8 N1         -3.4394   -0.8186    1.6543 N.am      1 <0>        -0.6219
      9 C7         -2.1105   -0.2480    1.9139 C.3       1 <0>         0.1312
     10 C8         -4.5531   -0.0929    1.8769 C.2       1 <0>         0.7101
     11 O1         -4.4681    1.0159    2.3686 O.2       1 <0>        -0.5670
     12 N2         -5.7611   -0.5963    1.5544 N.am      1 <0>        -0.6797
     13 C9         -6.9086    0.1955    1.6897 C.ar      1 <0>         0.1337
     14 C10        -6.7952    1.5763    1.7726 C.ar      1 <0>        -0.1124
     15 C11        -7.9286    2.3548    1.9060 C.ar      1 <0>        -0.1052
     16 C12        -9.1762    1.7607    1.9572 C.ar      1 <0>        -0.0816
     17 C13        -9.2945    0.3855    1.8750 C.ar      1 <0>        -0.1310
     18 C14        -8.1644   -0.3996    1.7356 C.ar      1 <0>         0.0616
     19 F1         -8.2801   -1.7429    1.6496 F         1 <0>        -0.1406
     20 C15       -10.4098    2.6139    2.1033 C.3       1 <0>        -0.1139
     21 H2          1.1837    1.9006    1.4658 H         1 <0>         0.0560
     22 H3         -0.2261    2.1188    0.4013 H         1 <0>         0.0547
     23 H4         -0.4622    1.7561    2.1279 H         1 <0>         0.0576
     24 H5          0.8001   -0.1145    0.0725 H         1 <0>         0.0669
     25 H6          0.5640   -0.4771    1.7991 H         1 <0>         0.0649
     26 H7         -0.6104   -1.9691   -0.6682 H         1 <0>         0.0691
     27 H8         -0.8352   -2.4721    1.0241 H         1 <0>         0.0668
     28 H9         -3.0734   -1.6889   -0.8984 H         1 <0>         0.0686
     29 H10        -2.6443   -3.3548   -0.4391 H         1 <0>         0.0796
     30 H11        -4.5673   -2.4234    0.8975 H         1 <0>         0.0747
     31 H12        -3.1745   -2.8889    1.9078 H         1 <0>         0.0766
     32 H13        -1.6380   -0.7833    2.7375 H         1 <0>         0.0689
     33 H14        -2.2089    0.8070    2.1698 H         1 <0>         0.0986
     34 H15        -5.8357   -1.5069    1.2286 H         1 <0>         0.4091
     35 H16        -5.8215    2.0419    1.7331 H         1 <0>         0.1686
     36 H17        -7.8401    3.4292    1.9709 H         1 <0>         0.1328
     37 H18       -10.2703   -0.0756    1.9153 H         1 <0>         0.1387
     38 H19       -10.7814    2.8874    1.1158 H         1 <0>         0.0736
     39 H20       -11.1772    2.0544    2.6382 H         1 <0>         0.0682
     40 H21       -10.1629    3.5169    2.6616 H         1 <0>         0.0704
@<TRIPOS>BOND
     1    1    2 1
     2    1   21 1
     3    1   22 1
     4    1   23 1
     5    2    3 1
     6    2   24 1
     7    2   25 1
     8    3    4 1
     9    3    9 1
    10    3    5 1
    11    5    6 1
    12    5   26 1
    13    5   27 1
    14    6    7 1
    15    6   28 1
    16    6   29 1
    17    7    8 1
    18    7   30 1
    19    7   31 1
    20    8    9 1
    21    8   10 am
    22    9   32 1
    23    9   33 1
    24   10   11 2
    25   10   12 am
    26   12   13 1
    27   12   34 1
    28   13   18 ar
    29   13   14 ar
    30   14   15 ar
    31   14   35 1
    32   15   16 ar
    33   15   36 1
    34   16   17 ar
    35   16   20 1
    36   17   18 ar
    37   17   37 1
    38   18   19 1
    39   20   38 1
    40   20   39 1
    41   20   40 1
@<TRIPOS>MOLECULE
ZINC57930832
   41    43     0     0     0
SMALL
USER_CHARGES

@<TRIPOS>ATOM
      1 C1         -0.0187    1.5258    0.0104 C.3       1 <0>        -0.1662
      2 C2          0.0021   -0.0041    0.0020 C.3       1 <0>         0.0995
      3 N1          0.6878   -0.4765   -1.2033 N.am      1 <0>        -0.5393
      4 C3         -0.0464   -0.7055   -2.3732 C.ar      1 <0>         0.1016
      5 C4         -1.4295   -0.7775   -2.3390 C.ar      1 <0>        -0.1175
      6 C5         -2.1364   -0.9998   -3.5067 C.ar      1 <0>        -0.0937
      7 C6         -1.4704   -1.1504   -4.7091 C.ar      1 <0>        -0.0695
      8 C7         -0.0890   -1.0826   -4.7525 C.ar      1 <0>        -0.1412
      9 C8          0.6240   -0.8623   -3.5876 C.ar      1 <0>         0.1647
     10 N2          2.0245   -0.7995   -3.5967 N.pl3     1 <0>        -0.7476
     11 C9          2.7403   -1.2220   -2.3837 C.3       1 <0>         0.1921
     12 H1          3.7569   -0.8295   -2.4048 H         1 <0>         0.1266
     13 C10         2.0185   -0.6807   -1.1760 C.2       1 <0>         0.5151
     14 O1          2.6428   -0.4298   -0.1667 O.2       1 <0>        -0.5167
     15 C11         2.7822   -2.7272   -2.3216 C.ar      1 <0>        -0.1119
     16 C12         1.6756   -3.4655   -2.6974 C.ar      1 <0>        -0.0976
     17 C13         1.7140   -4.8462   -2.6404 C.ar      1 <0>        -0.1213
     18 C14         2.8592   -5.4885   -2.2081 C.ar      1 <0>        -0.1106
     19 C15         3.9661   -4.7502   -1.8332 C.ar      1 <0>        -0.1209
     20 C16         3.9291   -3.3696   -1.8942 C.ar      1 <0>        -0.0980
     21 C17        -2.2511   -1.3896   -5.9757 C.3       1 <0>        -0.1171
     22 C18        -3.6409   -1.0787   -3.4684 C.3       1 <0>        -0.1143
     23 H2          1.0039    1.9031    0.0027 H         1 <0>         0.0603
     24 H3         -0.5459    1.8868   -0.8726 H         1 <0>         0.0593
     25 H4         -0.5289    1.8773    0.9072 H         1 <0>         0.0723
     26 H5          0.5293   -0.3651    0.8851 H         1 <0>         0.0913
     27 H6         -1.0205   -0.3814    0.0098 H         1 <0>         0.0865
     28 H7         -1.9545   -0.6608   -1.4024 H         1 <0>         0.1303
     29 H8          0.4305   -1.2012   -5.6919 H         1 <0>         0.1299
     30 H9          2.5062   -0.4874   -4.3787 H         1 <0>         0.4126
     31 H10         0.7809   -2.9637   -3.0352 H         1 <0>         0.1269
     32 H11         0.8492   -5.4230   -2.9334 H         1 <0>         0.1235
     33 H12         2.8890   -6.5671   -2.1629 H         1 <0>         0.1241
     34 H13         4.8607   -5.2520   -1.4951 H         1 <0>         0.1261
     35 H14         4.7952   -2.7929   -1.6048 H         1 <0>         0.1261
     36 H15        -2.4944   -0.4333   -6.4387 H         1 <0>         0.0716
     37 H16        -1.6520   -1.9849   -6.6648 H         1 <0>         0.0656
     38 H17        -3.1715   -1.9237   -5.7398 H         1 <0>         0.0720
     39 H18        -4.0608   -0.0839   -3.6175 H         1 <0>         0.0700
     40 H19        -3.9901   -1.7427   -4.2591 H         1 <0>         0.0715
     41 H20        -3.9599   -1.4665   -2.5009 H         1 <0>         0.0640
@<TRIPOS>BOND
     1    1    2 1
     2    1   23 1
     3    1   24 1
     4    1   25 1
     5    2    3 1
     6    2   26 1
     7    2   27 1
     8    3   13 am
     9    3    4 1
    10    4    9 ar
    11    4    5 ar
    12    5    6 ar
    13    5   28 1
    14    6    7 ar
    15    6   22 1
    16    7    8 ar
    17    7   21 1
    18    8    9 ar
    19    8   29 1
    20    9   10 1
    21   10   11 1
    22   10   30 1
    23   11   12 1
    24   11   13 1
    25   11   15 1
    26   13   14 2
    27   15   20 ar
    28   15   16 ar
    29   16   17 ar
    30   16   31 1
    31   17   18 ar
    32   17   32 1
    33   18   19 ar
    34   18   33 1
    35   19   20 ar
    36   19   34 1
    37   20   35 1
    38   21   36 1
    39   21   37 1
    40   21   38 1
    41   22   39 1
    42   22   40 1
    43   22   41 1
@<TRIPOS>MOLECULE
ZINC04944834
   38    41     0     0     0
SMALL
USER_CHARGES
(5-ethyl-2-thienyl)BLAHdione
@<TRIPOS>ATOM
      1 C1         -1.9475    6.1597    4.8635 C.3       1 <0>        -0.1482
      2 C2         -0.6128    5.9467    4.1465 C.3       1 <0>        -0.0411
      3 C3         -0.8390    5.1417    2.8927 C.2       1 <0>        -0.1342
      4 C4         -1.1172    5.5749    1.6388 C.2       1 <0>        -0.1542
      5 C5         -1.2813    4.6449    0.6294 C.2       1 <0>        -0.1214
      6 C6         -1.1697    3.3269    0.9254 C.2       1 <0>        -0.1226
      7 S1         -0.8093    3.3702    2.6734 S.3       1 <0>         0.0284
      8 C7         -1.3076    2.1346    0.0142 C.3       1 <0>         0.0714
      9 H1         -1.5281    2.4764   -0.9971 H         1 <0>         0.1146
     10 C8         -2.4503    1.2434    0.5110 C.3       1 <0>        -0.1630
     11 C9         -2.2947   -0.1083   -0.1578 C.2       1 <0>         0.4922
     12 O1         -3.1758   -0.5863   -0.8323 O.2       1 <0>        -0.4130
     13 O2         -1.1255   -0.7510    0.0361 O.3       1 <0>        -0.2850
     14 C10         0.0021   -0.0041    0.0020 C.2       1 <0>         0.2323
     15 C11        -0.0164    1.3552    0.0095 C.2       1 <0>        -0.2735
     16 C12         1.1985    2.0716    0.0017 C.2       1 <0>         0.5579
     17 O3          1.1646    3.2905    0.0208 O.2       1 <0>        -0.5087
     18 N1          2.3906    1.4558   -0.0264 N.am      1 <0>        -0.6364
     19 H2          3.2273    2.0035   -0.0324 H         1 <0>         0.4262
     20 C13         2.4802    0.0795   -0.0472 C.ar      1 <0>         0.2088
     21 C14         1.3041   -0.6895   -0.0328 C.ar      1 <0>        -0.1314
     22 C15         1.3825   -2.0840   -0.0504 C.ar      1 <0>        -0.0379
     23 C16         2.6062   -2.6927   -0.0839 C.ar      1 <0>        -0.1516
     24 C17         3.7699   -1.9373   -0.0996 C.ar      1 <0>        -0.0491
     25 C18         3.7146   -0.5597   -0.0817 C.ar      1 <0>        -0.1658
     26 H3         -2.6317    6.6960    4.2059 H         1 <0>         0.0589
     27 H4         -2.3778    5.1930    5.1251 H         1 <0>         0.0571
     28 H5         -1.7839    6.7420    5.7704 H         1 <0>         0.0634
     29 H6          0.0714    5.4104    4.8041 H         1 <0>         0.0769
     30 H7         -0.1825    6.9134    3.8850 H         1 <0>         0.0857
     31 H8         -1.2048    6.6310    1.4306 H         1 <0>         0.1299
     32 H9         -1.4981    4.9636   -0.3795 H         1 <0>         0.1286
     33 H10        -3.4092    1.6837    0.2378 H         1 <0>         0.1286
     34 H11        -2.3897    1.1304    1.5935 H         1 <0>         0.1189
     35 H12         0.4809   -2.6784   -0.0381 H         1 <0>         0.1422
     36 H13         2.6676   -3.7708   -0.0979 H         1 <0>         0.1360
     37 H14         4.7289   -2.4334   -0.1264 H         1 <0>         0.1377
     38 H15         4.6257    0.0202   -0.0945 H         1 <0>         0.1412
@<TRIPOS>BOND
     1    1    2 1
     2    1   26 1
     3    1   27 1
     4    1   28 1
     5    2    3 1
     6    2   29 1
     7    2   30 1
     8    3    7 1
     9    3    4 2
    10    4    5 1
    11    4   31 1
    12    5    6 2
    13    5   32 1
    14    6    7 1
    15    6    8 1
    16    8    9 1
    17    8   15 1
    18    8   10 1
    19   10   11 1
    20   10   33 1
    21   10   34 1
    22   11   12 2
    23   11   13 1
    24   13   14 1
    25   14   21 1
    26   14   15 2
    27   15   16 1
    28   16   17 2
    29   16   18 am
    30   18   19 1
    31   18   20 1
    32   20   25 ar
    33   20   21 ar
    34   21   22 ar
    35   22   23 ar
    36   22   35 1
    37   23   24 ar
    38   23   36 1
    39   24   25 ar
    40   24   37 1
    41   25   38 1
@<TRIPOS>MOLECULE
ZINC14549610
   41    44     0     0     0
SMALL
USER_CHARGES
(3aS,4S,9bS)-4-(4-fluorophenyl)-6-methyl-7-nitro-3a,4,5,9b-tetrahydro-3H-cyclopenta[c]quinoline
@<TRIPOS>ATOM
      1 C1          3.2292    0.7090    3.8062 C.3       1 <0>        -0.1164
      2 C2          2.1345   -0.0734    3.1277 C.ar      1 <0>        -0.0647
      3 C3          1.5110   -1.0980    3.8047 C.ar      1 <0>        -0.0126
      4 C4          0.5057   -1.8253    3.1948 C.ar      1 <0>        -0.0857
      5 C5          0.1330   -1.5221    1.8987 C.ar      1 <0>        -0.0842
      6 C6          0.7546   -0.5010    1.2125 C.ar      1 <0>        -0.0683
      7 C7          1.7653    0.2491    1.8208 C.ar      1 <0>         0.1463
      8 N1          2.4261    1.3113    1.2079 N.pl3     1 <0>        -0.6332
      9 C8          2.0795    1.5848   -0.2133 C.3       1 <0>         0.1508
     10 H1          2.6027    0.8973   -0.8780 H         1 <0>         0.0776
     11 C9          0.5837    1.3791   -0.3312 C.3       1 <0>        -0.0906
     12 H2          0.0439    1.9370    0.4339 H         1 <0>         0.1022
     13 C10         0.3851   -0.1614   -0.1791 C.3       1 <0>        -0.0441
     14 H3          1.0877   -0.6560   -0.8498 H         1 <0>         0.0946
     15 C11        -0.9863   -0.3759   -0.7027 C.2       1 <0>        -0.1560
     16 C12        -1.2478    0.5679   -1.6004 C.2       1 <0>        -0.1541
     17 C13        -0.0567    1.5226   -1.7162 C.3       1 <0>        -0.0871
     18 C14         2.4317    3.0077   -0.5631 C.ar      1 <0>        -0.0990
     19 C15         2.2551    4.0123    0.3701 C.ar      1 <0>        -0.0597
     20 C16         2.5822    5.3168    0.0521 C.ar      1 <0>        -0.1557
     21 C17         3.0770    5.6191   -1.2052 C.ar      1 <0>         0.1044
     22 C18         3.2485    4.6129   -2.1408 C.ar      1 <0>        -0.1540
     23 C19         2.9256    3.3083   -1.8188 C.ar      1 <0>        -0.0792
     24 F1          3.3927    6.8947   -1.5187 F         1 <0>        -0.1380
     25 N2          1.9183   -1.4214    5.1904 N.pl3     1 <0>         0.0237
     26 O1          1.9400   -2.5805    5.5639 O.2       1 <0>        -0.1563
     27 O2          2.2319   -0.5285    5.9571 O.3       1 <0>        -0.1466
     28 H4          2.7883    1.5015    4.4109 H         1 <0>         0.0959
     29 H5          3.8085    0.0434    4.4461 H         1 <0>         0.0714
     30 H6          3.8828    1.1480    3.0524 H         1 <0>         0.0741
     31 H7          0.0141   -2.6256    3.7281 H         1 <0>         0.1485
     32 H8         -0.6516   -2.0894    1.4201 H         1 <0>         0.1464
     33 H9          3.4252    1.2305    1.3233 H         1 <0>         0.3714
     34 H10        -1.6592   -1.1661   -0.4040 H         1 <0>         0.1346
     35 H11        -2.1650    0.6497   -2.1647 H         1 <0>         0.1342
     36 H12        -0.3908    2.5457   -1.8885 H         1 <0>         0.0791
     37 H13         0.6288    1.1995   -2.4995 H         1 <0>         0.0840
     38 H14         1.8652    3.7769    1.3494 H         1 <0>         0.1401
     39 H15         2.4481    6.1008    0.7827 H         1 <0>         0.1370
     40 H16         3.6347    4.8475   -3.1217 H         1 <0>         0.1374
     41 H17         3.0590    2.5234   -2.5485 H         1 <0>         0.1320
@<TRIPOS>BOND
     1    1    2 1
     2    1   28 1
     3    1   29 1
     4    1   30 1
     5    2    7 ar
     6    2    3 ar
     7    3    4 ar
     8    3   25 1
     9    4    5 ar
    10    4   31 1
    11    5    6 ar
    12    5   32 1
    13    6   13 1
    14    6    7 ar
    15    7    8 1
    16    8    9 1
    17    8   33 1
    18    9   10 1
    19    9   11 1
    20    9   18 1
    21   11   12 1
    22   11   17 1
    23   11   13 1
    24   13   14 1
    25   13   15 1
    26   15   16 2
    27   15   34 1
    28   16   17 1
    29   16   35 1
    30   17   36 1
    31   17   37 1
    32   18   23 ar
    33   18   19 ar
    34   19   20 ar
    35   19   38 1
    36   20   21 ar
    37   20   39 1
    38   21   22 ar
    39   21   24 1
    40   22   23 ar
    41   22   40 1
    42   23   41 1
    43   25   26 2
    44   25   27 1
@<TRIPOS>MOLECULE
ZINC33151373
   35    37     0     0     0
SMALL
USER_CHARGES
N-(3-cyano-2-thienyl)-2,7-dimethyl-quinoline-3-carboxamide
@<TRIPOS>ATOM
      1 C1          4.8761   -2.7032   -0.7335 C.3       1 <0>        -0.1253
      2 C2          3.5893   -1.9657   -0.4668 C.ar      1 <0>        -0.0456
      3 C3          2.4294   -2.6880   -0.1942 C.ar      1 <0>        -0.1161
      4 C4          1.2515   -2.0505    0.0498 C.ar      1 <0>        -0.0825
      5 C5          1.2044   -0.6460    0.0285 C.ar      1 <0>        -0.1249
      6 C6          0.0071    0.0465    0.2764 C.ar      1 <0>        -0.0036
      7 C7          0.0376    1.4360    0.2378 C.ar      1 <0>        -0.1946
      8 C8          1.2482    2.0936   -0.0440 C.ar      1 <0>         0.2184
      9 N1          2.3510    1.4284   -0.2722 N.ar      1 <0>        -0.4753
     10 C9          2.3837    0.0908   -0.2483 C.ar      1 <0>         0.1637
     11 C10         3.5794   -0.6046   -0.4958 C.ar      1 <0>        -0.1083
     12 C11         1.2755    3.5998   -0.0846 C.3       1 <0>        -0.1072
     13 C12        -1.1929    2.2149    0.4848 C.2       1 <0>         0.5663
     14 O1         -1.1395    3.4270    0.5639 O.2       1 <0>        -0.4824
     15 N2         -2.3748    1.5821    0.6225 N.am      1 <0>        -0.6319
     16 C13        -3.5301    2.3134    0.8544 C.2       1 <0>         0.1025
     17 C14        -4.8288    1.8469    1.0164 C.2       1 <0>        -0.1441
     18 C15        -5.8505    2.8384    1.2510 C.2       1 <0>        -0.0947
     19 C16        -5.4608    4.1263    1.2832 C.2       1 <0>        -0.2312
     20 S1         -3.7046    4.0295    1.0046 S.3       1 <0>         0.2486
     21 C17        -5.1376    0.4499    0.9573 C.1       1 <0>         0.2689
     22 N3         -5.3827   -0.6584    0.9104 N.1       1 <0>        -0.4259
     23 H1          4.6978   -3.7867   -0.6694 H         1 <0>         0.0718
     24 H2          5.6282   -2.4105    0.0140 H         1 <0>         0.0783
     25 H3          5.2416   -2.4507   -1.7398 H         1 <0>         0.0783
     26 H4          2.4650   -3.7673   -0.1770 H         1 <0>         0.1334
     27 H5          0.3585   -2.6207    0.2593 H         1 <0>         0.1354
     28 H6         -0.9087   -0.4843    0.4908 H         1 <0>         0.1415
     29 H7          4.4880   -0.0609   -0.7081 H         1 <0>         0.1408
     30 H8          2.2948    3.9419   -0.3170 H         1 <0>         0.0766
     31 H9          0.9690    3.9986    0.8937 H         1 <0>         0.0955
     32 H10         0.5826    3.9583   -0.8601 H         1 <0>         0.0897
     33 H11        -2.4232    0.4855    0.5510 H         1 <0>         0.4436
     34 H12        -6.8845    2.5594    1.3906 H         1 <0>         0.1462
     35 H13        -6.0670    5.0062    1.4407 H         1 <0>         0.1941
@<TRIPOS>BOND
     1    1    2 1
     2    1   23 1
     3    1   24 1
     4    1   25 1
     5    2   11 ar
     6    2    3 ar
     7    3    4 ar
     8    3   26 1
     9    4    5 ar
    10    4   27 1
    11    5   10 ar
    12    5    6 ar
    13    6    7 ar
    14    6   28 1
    15    7    8 ar
    16    7   13 1
    17    8    9 ar
    18    8   12 1
    19    9   10 ar
    20   10   11 ar
    21   11   29 1
    22   12   30 1
    23   12   31 1
    24   12   32 1
    25   13   14 2
    26   13   15 am
    27   15   16 1
    28   15   33 1
    29   16   20 1
    30   16   17 2
    31   17   18 1
    32   17   21 1
    33   18   19 2
    34   18   34 1
    35   19   20 1
    36   19   35 1
    37   21   22 3
@<TRIPOS>MOLECULE
ZINC48955008
   37    38     0     0     0
SMALL
USER_CHARGES

@<TRIPOS>ATOM
      1 C1         -0.0143    1.5205   -0.0910 C.3       1 <0>        -0.1138
      2 C2         -0.0042    0.0136   -0.0789 C.ar      1 <0>        -0.0896
      3 C3          0.6052   -0.6805   -1.1082 C.ar      1 <0>        -0.0961
      4 C4          0.6165   -2.0617   -1.1006 C.ar      1 <0>        -0.1042
      5 C5          0.0155   -2.7539   -0.0577 C.ar      1 <0>         0.1687
      6 C6         -0.5957   -2.0541    0.9754 C.ar      1 <0>        -0.0619
      7 C7         -0.5992   -0.6718    0.9640 C.ar      1 <0>        -0.0933
      8 Cl1        -1.3491   -2.9145    2.2814 Cl        1 <0>        -0.0674
      9 N1          0.0249   -4.1538   -0.0475 N.am      1 <0>        -0.6840
     10 C8         -0.0586   -4.8368   -1.2064 C.2       1 <0>         0.7090
     11 O1         -0.0640   -4.2392   -2.2652 O.2       1 <0>        -0.5621
     12 N2         -0.1362   -6.1823   -1.1916 N.am      1 <0>        -0.6220
     13 C9         -0.1298   -6.9024    0.0842 C.3       1 <0>         0.0751
     14 C10        -0.2270   -6.9246   -2.4513 C.3       1 <0>         0.2069
     15 C11         1.1577   -7.1563   -2.9988 C.2       1 <0>        -0.1954
     16 C12         2.3792   -6.8256   -2.3683 C.2       1 <0>        -0.1924
     17 C13         3.3637   -7.2052   -3.2027 C.2       1 <0>        -0.0432
     18 O2          2.8064   -7.7452   -4.2988 O.3       1 <0>        -0.1744
     19 C14         1.4689   -7.7228   -4.1785 C.2       1 <0>        -0.0069
     20 C15         0.4838   -8.2413   -5.1943 C.3       1 <0>        -0.0759
     21 H1          0.8729    1.8939    0.4203 H         1 <0>         0.0735
     22 H2         -0.0163    1.8756   -1.1216 H         1 <0>         0.0701
     23 H3         -0.9070    1.8819    0.4195 H         1 <0>         0.0686
     24 H4          1.0726   -0.1419   -1.9192 H         1 <0>         0.1325
     25 H5          1.0920   -2.6027   -1.9052 H         1 <0>         0.1507
     26 H6         -1.0704   -0.1269    1.7686 H         1 <0>         0.1370
     27 H7          0.0916   -4.6322    0.7937 H         1 <0>         0.4078
     28 H8         -1.1558   -7.0918    0.3997 H         1 <0>         0.0637
     29 H9          0.3943   -7.8505   -0.0364 H         1 <0>         0.0798
     30 H10         0.3770   -6.3005    0.8386 H         1 <0>         0.0656
     31 H11        -0.7126   -7.8841   -2.2733 H         1 <0>         0.0919
     32 H12        -0.8106   -6.3499   -3.1704 H         1 <0>         0.0943
     33 H13         2.4989   -6.3575   -1.4024 H         1 <0>         0.1386
     34 H14         4.4227   -7.0942   -3.0219 H         1 <0>         0.2013
     35 H15         0.2913   -7.4701   -5.9401 H         1 <0>         0.0827
     36 H16         0.8963   -9.1242   -5.6826 H         1 <0>         0.0776
     37 H17        -0.4485   -8.5045   -4.6948 H         1 <0>         0.0874
@<TRIPOS>BOND
     1    1    2 1
     2    1   21 1
     3    1   22 1
     4    1   23 1
     5    2    7 ar
     6    2    3 ar
     7    3    4 ar
     8    3   24 1
     9    4    5 ar
    10    4   25 1
    11    5    6 ar
    12    5    9 1
    13    6    7 ar
    14    6    8 1
    15    7   26 1
    16    9   10 am
    17    9   27 1
    18   10   11 2
    19   10   12 am
    20   12   13 1
    21   12   14 1
    22   13   28 1
    23   13   29 1
    24   13   30 1
    25   14   15 1
    26   14   31 1
    27   14   32 1
    28   15   19 2
    29   15   16 1
    30   16   17 2
    31   16   33 1
    32   17   18 1
    33   17   34 1
    34   18   19 1
    35   19   20 1
    36   20   35 1
    37   20   36 1
    38   20   37 1
@<TRIPOS>MOLECULE
ZINC61578059
   34    36     0     0     0
SMALL
USER_CHARGES

@<TRIPOS>ATOM
      1 C1         -0.0607    1.2931   -0.0111 C.ar      1 <0>        -0.0431
      2 C2          1.0718    2.0851    0.0096 C.ar      1 <0>        -0.1855
      3 C3          2.3291    1.4983    0.0152 C.ar      1 <0>         0.2521
      4 C4          2.4457    0.1087    0.0000 C.ar      1 <0>         0.0564
      5 C5          1.3035   -0.6787   -0.0207 C.ar      1 <0>         0.0122
      6 C6          0.0541   -0.0846   -0.0261 C.ar      1 <0>        -0.1533
      7 Cl1         1.4422   -2.4091   -0.0402 Cl        1 <0>        -0.0492
      8 N1          3.7143   -0.4913    0.0052 N.pl3     1 <0>        -0.3252
      9 C7          4.1511   -1.4634   -0.8182 C.2       1 <0>         0.2746
     10 N2          5.3858   -1.7479   -0.4903 N.2       1 <0>        -0.5369
     11 C8          5.7700   -0.9835    0.5311 C.2       1 <0>         0.2076
     12 N3          4.7832   -0.1933    0.8661 N.2       1 <0>        -0.3241
     13 N4          3.4755    2.2976    0.0357 N.pl3     1 <0>        -0.7253
     14 C9          3.3533    3.7556   -0.0384 C.3       1 <0>         0.1509
     15 H1          2.4553    4.0710    0.4928 H         1 <0>         0.0976
     16 C10         4.5765    4.4000    0.6070 C.3       1 <0>        -0.1385
     17 C11         4.3601    5.8976    0.8029 C.3       1 <0>        -0.1169
     18 C12         4.3920    6.6112   -0.5518 C.3       1 <0>        -0.0875
     19 S1          3.0228    5.9861   -1.5719 S.3       1 <0>        -0.2481
     20 C13         3.2531    4.1837   -1.5055 C.3       1 <0>        -0.1016
     21 H2         -1.0385    1.7518   -0.0110 H         1 <0>         0.1429
     22 H3          0.9781    3.1610    0.0209 H         1 <0>         0.1411
     23 H4         -0.8341   -0.6989   -0.0419 H         1 <0>         0.1438
     24 H5          3.5820   -1.9273   -1.6102 H         1 <0>         0.2168
     25 H6          6.7410   -1.0092    1.0033 H         1 <0>         0.2219
     26 H7          4.3520    1.8869    0.0989 H         1 <0>         0.4086
     27 H8          4.7583    3.9341    1.5755 H         1 <0>         0.0836
     28 H9          5.4443    4.2438   -0.0339 H         1 <0>         0.0702
     29 H10         3.3931    6.0645    1.2774 H         1 <0>         0.0809
     30 H11         5.1486    6.2968    1.4410 H         1 <0>         0.0831
     31 H12         4.2762    7.6847   -0.4024 H         1 <0>         0.1106
     32 H13         5.3405    6.4092   -1.0493 H         1 <0>         0.0855
     33 H14         4.1695    3.9114   -2.0293 H         1 <0>         0.0856
     34 H15         2.4014    3.6898   -1.9732 H         1 <0>         0.1091
@<TRIPOS>BOND
     1    1    6 ar
     2    1    2 ar
     3    1   21 1
     4    2    3 ar
     5    2   22 1
     6    3    4 ar
     7    3   13 1
     8    4    5 ar
     9    4    8 1
    10    5    6 ar
    11    5    7 1
    12    6   23 1
    13    8   12 1
    14    8    9 1
    15    9   10 2
    16    9   24 1
    17   10   11 1
    18   11   12 2
    19   11   25 1
    20   13   14 1
    21   13   26 1
    22   14   15 1
    23   14   20 1
    24   14   16 1
    25   16   17 1
    26   16   27 1
    27   16   28 1
    28   17   18 1
    29   17   29 1
    30   17   30 1
    31   18   19 1
    32   18   31 1
    33   18   32 1
    34   19   20 1
    35   20   33 1
    36   20   34 1
@<TRIPOS>MOLECULE
ZINC00189650
   42    46     0     0     0
SMALL
USER_CHARGES
methyl-phenyl-thioxo-BLAHone
@<TRIPOS>ATOM
      1 C1          1.4323   -7.1977   -2.0150 C.3       1 <0>         0.0707
      2 N1          1.1010   -6.0534   -1.1622 N.am      1 <0>        -0.5404
      3 C2          1.9764   -5.4476   -0.3342 C.2       1 <0>         0.5186
      4 O1          3.1451   -5.7279   -0.1740 O.2       1 <0>        -0.4416
      5 C3          1.1988   -4.3447    0.3547 C.3       1 <0>         0.0754
      6 H1          1.1471   -4.5002    1.4323 H         1 <0>         0.1519
      7 C4          1.8019   -2.9832   -0.0111 C.3       1 <0>        -0.0355
      8 C5          0.7421   -1.9176    0.1147 C.2       1 <0>        -0.1577
      9 C6          0.9419   -0.4859    0.2442 C.ar      1 <0>        -0.0996
     10 C7          2.0927    0.3061    0.2992 C.ar      1 <0>        -0.0659
     11 C8          1.9072    1.6605    0.4287 C.ar      1 <0>        -0.1451
     12 C9          0.6449    2.2266    0.5032 C.ar      1 <0>        -0.0936
     13 C10        -0.5103    1.4661    0.4502 C.ar      1 <0>        -0.1284
     14 C11        -0.3526    0.0879    0.3181 C.ar      1 <0>         0.1086
     15 N2         -1.2543   -0.9335    0.2353 N.pl3     1 <0>        -0.5673
     16 H2         -2.2186   -0.8302    0.2560 H         1 <0>         0.4211
     17 C12        -0.5914   -2.1259    0.1182 C.2       1 <0>         0.0630
     18 C13        -1.2275   -3.4977    0.0093 C.3       1 <0>         0.2873
     19 H3         -1.7127   -3.7610    0.9491 H         1 <0>         0.1175
     20 N3         -0.1359   -4.4366   -0.2773 N.pl3     1 <0>        -0.5525
     21 C14        -0.1098   -5.4802   -1.1084 C.2       1 <0>         0.5321
     22 S1         -1.4652   -6.0245   -2.0014 S.2       1 <0>        -0.5202
     23 C15        -2.2325   -3.5144   -1.1136 C.ar      1 <0>        -0.0944
     24 C16        -1.8200   -3.2894   -2.4137 C.ar      1 <0>        -0.0533
     25 C17        -2.7412   -3.3094   -3.4442 C.ar      1 <0>        -0.1133
     26 C18        -4.0763   -3.5441   -3.1735 C.ar      1 <0>        -0.0991
     27 C19        -4.4895   -3.7639   -1.8728 C.ar      1 <0>        -0.1181
     28 C20        -3.5676   -3.7490   -0.8428 C.ar      1 <0>        -0.0871
     29 H4          0.5506   -7.4948   -2.5829 H         1 <0>         0.1193
     30 H5          2.2306   -6.9191   -2.7029 H         1 <0>         0.0852
     31 H6          1.7620   -8.0304   -1.3938 H         1 <0>         0.0854
     32 H7          2.1691   -3.0119   -1.0370 H         1 <0>         0.0845
     33 H8          2.6268   -2.7574    0.6647 H         1 <0>         0.1063
     34 H9          3.0806   -0.1267    0.2429 H         1 <0>         0.1307
     35 H10         2.7727    2.3048    0.4747 H         1 <0>         0.1211
     36 H11         0.5594    3.2984    0.6050 H         1 <0>         0.1240
     37 H12        -1.4887    1.9203    0.5043 H         1 <0>         0.1308
     38 H13        -0.7776   -3.1017   -2.6247 H         1 <0>         0.1043
     39 H14        -2.4184   -3.1374   -4.4604 H         1 <0>         0.1173
     40 H15        -4.7966   -3.5553   -3.9781 H         1 <0>         0.1186
     41 H16        -5.5326   -3.9469   -1.6612 H         1 <0>         0.1208
     42 H17        -3.8905   -3.9204    0.1734 H         1 <0>         0.1184
@<TRIPOS>BOND
     1    1    2 1
     2    1   29 1
     3    1   30 1
     4    1   31 1
     5    2   21 1
     6    2    3 am
     7    3    4 2
     8    3    5 1
     9    5    6 1
    10    5   20 1
    11    5    7 1
    12    7    8 1
    13    7   32 1
    14    7   33 1
    15    8   17 2
    16    8    9 1
    17    9   14 ar
    18    9   10 ar
    19   10   11 ar
    20   10   34 1
    21   11   12 ar
    22   11   35 1
    23   12   13 ar
    24   12   36 1
    25   13   14 ar
    26   13   37 1
    27   14   15 1
    28   15   16 1
    29   15   17 1
    30   17   18 1
    31   18   19 1
    32   18   20 1
    33   18   23 1
    34   20   21 1
    35   21   22 2
    36   23   28 ar
    37   23   24 ar
    38   24   25 ar
    39   24   38 1
    40   25   26 ar
    41   25   39 1
    42   26   27 ar
    43   26   40 1
    44   27   28 ar
    45   27   41 1
    46   28   42 1
@<TRIPOS>MOLECULE
ZINC01624433
   31    34     0     0     0
SMALL
USER_CHARGES
dichloro-(4-chlorobenzoyl)-BLAHone
@<TRIPOS>ATOM
      1 C1         -0.6279    2.1841    3.2725 C.ar      1 <0>        -0.0553
      2 C2         -0.0114    1.7653    4.4317 C.ar      1 <0>        -0.1184
      3 C3          0.9324    2.5709    5.0485 C.ar      1 <0>         0.0025
      4 C4          1.2676    3.7995    4.5025 C.ar      1 <0>        -0.1184
      5 C5          0.6638    4.2286    3.3403 C.ar      1 <0>        -0.0381
      6 C6         -0.2899    3.4206    2.7121 C.ar      1 <0>        -0.1652
      7 C7         -0.9387    3.8717    1.4714 C.2       1 <0>         0.3988
      8 O1         -0.6472    4.9462    0.9908 O.2       1 <0>        -0.4079
      9 C8         -1.9656    2.9984    0.7976 C.3       1 <0>         0.0184
     10 H1         -2.8077    2.9973    1.3370 H         1 <0>         0.1569
     11 C9         -1.4689    1.7797    0.0317 C.3       1 <0>         0.0349
     12 O2         -1.9549    2.9372   -0.6318 O.3       1 <0>        -0.2522
     13 C10        -0.0168    1.3865    0.0097 C.ar      1 <0>        -0.1166
     14 C11         1.1576    2.1057    0.0023 C.ar      1 <0>        -0.0330
     15 C12         2.3743    1.4450   -0.0118 C.ar      1 <0>        -0.0427
     16 C13         2.4060    0.0614   -0.0187 C.ar      1 <0>        -0.0497
     17 C14         1.2309   -0.6625   -0.0117 C.ar      1 <0>        -0.0461
     18 C15         0.0021   -0.0041    0.0020 C.ar      1 <0>         0.1807
     19 N1         -1.3022   -0.5055    0.0101 N.am      1 <0>        -0.6436
     20 C16        -2.2241    0.4758    0.0241 C.2       1 <0>         0.5623
     21 O3         -3.4290    0.3369    0.0334 O.2       1 <0>        -0.4527
     22 Cl1         1.2830   -2.3977   -0.0206 Cl        1 <0>        -0.0380
     23 Cl2         3.8559    2.3497   -0.0203 Cl        1 <0>        -0.0348
     24 Cl3         1.6981    2.0385    6.5127 Cl        1 <0>        -0.0518
     25 H2         -1.3668    1.5574    2.7954 H         1 <0>         0.1341
     26 H3         -0.2680    0.8090    4.8631 H         1 <0>         0.1441
     27 H4          2.0040    4.4222    4.9886 H         1 <0>         0.1458
     28 H5          0.9260    5.1864    2.9159 H         1 <0>         0.1482
     29 H6          1.1295    3.1853    0.0078 H         1 <0>         0.1465
     30 H7          3.3549   -0.4544   -0.0293 H         1 <0>         0.1609
     31 H8         -1.5185   -1.4510    0.0066 H         1 <0>         0.4306
@<TRIPOS>BOND
     1    1    6 ar
     2    1    2 ar
     3    1   25 1
     4    2    3 ar
     5    2   26 1
     6    3    4 ar
     7    3   24 1
     8    4    5 ar
     9    4   27 1
    10    5    6 ar
    11    5   28 1
    12    6    7 1
    13    7    8 2
    14    7    9 1
    15    9   10 1
    16    9   12 1
    17    9   11 1
    18   11   20 1
    19   11   12 1
    20   11   13 1
    21   13   18 ar
    22   13   14 ar
    23   14   15 ar
    24   14   29 1
    25   15   16 ar
    26   15   23 1
    27   16   17 ar
    28   16   30 1
    29   17   18 ar
    30   17   22 1
    31   18   19 1
    32   19   20 am
    33   19   31 1
    34   20   21 2
@<TRIPOS>MOLECULE
ZINC32694177
   35    36     0     0     0
SMALL
USER_CHARGES
4-[5-chloro-2-(difluoromethoxy)phenyl]-2,6-dimethyl-1,4-dihydropyridine-3,5-dicarbonitrile
@<TRIPOS>ATOM
      1 C1         -5.1502    2.9502   -2.3619 C.3       1 <0>        -0.1369
      2 C2         -4.3941    3.3024   -1.1068 C.2       1 <0>         0.2108
      3 C3         -3.3545    4.1491   -1.1742 C.2       1 <0>        -0.1490
      4 C4         -2.5660    4.5219    0.0489 C.3       1 <0>         0.0928
      5 C5         -3.3181    4.1621    1.2986 C.2       1 <0>        -0.1515
      6 C6         -4.3591    3.3150    1.2709 C.2       1 <0>         0.2123
      7 N1         -4.7759    2.7539    0.0909 N.pl3     1 <0>        -0.6443
      8 C7         -5.0783    2.9766    2.5513 C.3       1 <0>        -0.1341
      9 C8         -2.9155    4.7357    2.5474 C.1       1 <0>         0.2653
     10 N2         -2.5962    5.1907    3.5381 N.1       1 <0>        -0.4235
     11 C9         -1.2501    3.7877    0.0334 C.ar      1 <0>        -0.0835
     12 C10        -1.2293    2.4062    0.0209 C.ar      1 <0>        -0.0586
     13 C11        -0.0215    1.7317    0.0116 C.ar      1 <0>        -0.0583
     14 C12         1.1680    2.4390    0.0040 C.ar      1 <0>        -0.0706
     15 C13         1.1513    3.8201    0.0111 C.ar      1 <0>        -0.1761
     16 C14        -0.0590    4.4983    0.0259 C.ar      1 <0>         0.1207
     17 O1         -0.0774    5.8574    0.0324 O.3       1 <0>        -0.3140
     18 C15         1.1868    6.5234    0.0235 C.3       1 <0>         0.4079
     19 F1          1.9177    6.1519    1.1571 F         1 <0>        -0.1965
     20 F2          1.8959    6.1627   -1.1273 F         1 <0>        -0.1965
     21 Cl1         0.0021   -0.0041    0.0020 Cl        1 <0>        -0.0640
     22 C16        -2.9893    4.7097   -2.4403 C.1       1 <0>         0.2661
     23 N3         -2.6995    5.1545   -3.4446 N.1       1 <0>        -0.4252
     24 H1         -4.7063    3.4794   -3.2180 H         1 <0>         0.0871
     25 H2         -6.2030    3.2493   -2.2518 H         1 <0>         0.0925
     26 H3         -5.0931    1.8649   -2.5320 H         1 <0>         0.0917
     27 H4         -2.3994    5.6092    0.0407 H         1 <0>         0.1015
     28 H5         -5.4184    1.8612    0.1071 H         1 <0>         0.4521
     29 H6         -5.8970    2.2738    2.3372 H         1 <0>         0.0836
     30 H7         -5.4901    3.8954    2.9944 H         1 <0>         0.0936
     31 H8         -4.3727    2.5136    3.2568 H         1 <0>         0.0925
     32 H9         -2.1566    1.8525    0.0223 H         1 <0>         0.1399
     33 H10         2.1099    1.9108   -0.0071 H         1 <0>         0.1410
     34 H11         2.0798    4.3718    0.0049 H         1 <0>         0.1435
     35 H12         1.0496    7.6148    0.0300 H         1 <0>         0.1877
@<TRIPOS>BOND
     1    1    2 1
     2    1   24 1
     3    1   25 1
     4    1   26 1
     5    2    7 1
     6    2    3 2
     7    3    4 1
     8    3   22 1
     9    4    5 1
    10    4   11 1
    11    4   27 1
    12    5    6 2
    13    5    9 1
    14    6    7 1
    15    6    8 1
    16    7   28 1
    17    8   29 1
    18    8   30 1
    19    8   31 1
    20    9   10 3
    21   11   16 ar
    22   11   12 ar
    23   12   13 ar
    24   12   32 1
    25   13   14 ar
    26   13   21 1
    27   14   15 ar
    28   14   33 1
    29   15   16 ar
    30   15   34 1
    31   16   17 1
    32   17   18 1
    33   18   19 1
    34   18   20 1
    35   18   35 1
    36   22   23 3
@<TRIPOS>MOLECULE
ZINC02445255
   37    40     0     0     0
SMALL
USER_CHARGES

@<TRIPOS>ATOM
      1 C1         -0.0167    1.3781    0.0096 C.ar      1 <0>        -0.1085
      2 C2          1.1709    2.0855    0.0021 C.ar      1 <0>        -0.1186
      3 C3          2.3773    1.4107   -0.0130 C.ar      1 <0>        -0.0961
      4 C4          2.3960    0.0285   -0.0201 C.ar      1 <0>        -0.0946
      5 C5          1.2084   -0.6789   -0.0117 C.ar      1 <0>        -0.0906
      6 C6          0.0021   -0.0041    0.0020 C.ar      1 <0>        -0.1191
      7 C7          3.7112   -0.7071   -0.0376 C.3       1 <0>         0.2092
      8 H1          4.5313    0.0109   -0.0426 H         1 <0>         0.0984
      9 C8          3.8172   -1.5999    1.2050 C.3       1 <0>        -0.1408
     10 C9          5.0119   -2.5494    1.0599 C.3       1 <0>         0.1986
     11 H2          5.9226   -1.9707    0.9057 H         1 <0>         0.0897
     12 N1          4.7785   -3.4254   -0.1047 N.pl3     1 <0>        -0.7050
     13 C10         4.2824   -2.8097   -1.2462 C.2       1 <0>         0.5246
     14 N2          3.7874   -1.5465   -1.2327 N.pl3     1 <0>        -0.4072
     15 N3          3.3917   -1.2589   -2.5395 N.2       1 <0>        -0.3076
     16 C11         3.6560   -2.3218   -3.2573 C.2       1 <0>         0.2145
     17 N4          4.1939   -3.2644   -2.4670 N.2       1 <0>        -0.5726
     18 C12         5.1484   -3.3849    2.3066 C.ar      1 <0>        -0.0847
     19 C13         4.3424   -4.4935    2.4872 C.ar      1 <0>        -0.0984
     20 C14         4.4675   -5.2603    3.6303 C.ar      1 <0>        -0.0868
     21 C15         5.3994   -4.9184    4.5936 C.ar      1 <0>        -0.0837
     22 C16         6.2057   -3.8092    4.4125 C.ar      1 <0>        -0.0870
     23 C17         6.0835   -3.0459    3.2667 C.ar      1 <0>        -0.0952
     24 Br1         5.5707   -5.9669    6.1580 Br        1 <0>        -0.0429
     25 H3         -0.9591    1.9053    0.0259 H         1 <0>         0.1246
     26 H4          1.1563    3.1654    0.0076 H         1 <0>         0.1262
     27 H5          3.3051    1.9634   -0.0196 H         1 <0>         0.1240
     28 H6          1.2231   -1.7588   -0.0176 H         1 <0>         0.1137
     29 H7         -0.9258   -0.5567    0.0082 H         1 <0>         0.1236
     30 H8          3.9548   -0.9766    2.0886 H         1 <0>         0.1116
     31 H9          2.9021   -2.1823    1.3122 H         1 <0>         0.0898
     32 H10         4.9617   -4.3775   -0.0745 H         1 <0>         0.4267
     33 H11         3.4672   -2.4249   -4.3157 H         1 <0>         0.2175
     34 H12         3.6146   -4.7601    1.7351 H         1 <0>         0.1342
     35 H13         3.8376   -6.1262    3.7714 H         1 <0>         0.1370
     36 H14         6.9335   -3.5419    5.1644 H         1 <0>         0.1382
     37 H15         6.7157   -2.1822    3.1232 H         1 <0>         0.1372
@<TRIPOS>BOND
     1    1    6 ar
     2    1    2 ar
     3    1   25 1
     4    2    3 ar
     5    2   26 1
     6    3    4 ar
     7    3   27 1
     8    4    5 ar
     9    4    7 1
    10    5    6 ar
    11    5   28 1
    12    6   29 1
    13    7    8 1
    14    7   14 1
    15    7    9 1
    16    9   10 1
    17    9   30 1
    18    9   31 1
    19   10   11 1
    20   10   12 1
    21   10   18 1
    22   12   13 1
    23   12   32 1
    24   13   17 2
    25   13   14 1
    26   14   15 1
    27   15   16 2
    28   16   17 1
    29   16   33 1
    30   18   23 ar
    31   18   19 ar
    32   19   20 ar
    33   19   34 1
    34   20   21 ar
    35   20   35 1
    36   21   22 ar
    37   21   24 1
    38   22   23 ar
    39   22   36 1
    40   23   37 1
@<TRIPOS>MOLECULE
ZINC13688907
   47    50     0     0     0
SMALL
USER_CHARGES

@<TRIPOS>ATOM
      1 C1         -0.0184    1.5028    0.0103 C.3       1 <0>        -0.0885
      2 C2          0.0021   -0.0041    0.0020 C.2       1 <0>         0.1469
      3 C3          0.0080   -0.8157   -1.1299 C.2       1 <0>        -0.2859
      4 C4          0.0260   -2.1184   -0.7163 C.2       1 <0>         0.3075
      5 O1          0.0355   -2.1271    0.6160 O.3       1 <0>        -0.0865
      6 N1          0.0231   -0.7779    1.0567 N.2       1 <0>        -0.3120
      7 N2          0.0278   -3.1630   -1.6228 N.pl3     1 <0>        -0.6077
      8 C5         -0.2950   -2.8984   -2.9316 C.2       1 <0>         0.2310
      9 C6         -0.3238   -1.6436   -3.4281 C.2       1 <0>        -0.2679
     10 C7         -0.0004   -0.4307   -2.5825 C.3       1 <0>         0.1021
     11 H1         -0.7537    0.3393   -2.7495 H         1 <0>         0.0938
     12 C8          1.3553    0.1028   -2.9679 C.ar      1 <0>        -0.0696
     13 C9          2.4735   -0.7017   -2.8453 C.ar      1 <0>        -0.0874
     14 C10         3.7174   -0.2161   -3.1971 C.ar      1 <0>        -0.1002
     15 C11         3.8447    1.0825   -3.6752 C.ar      1 <0>        -0.0824
     16 C12         2.7187    1.8879   -3.7975 C.ar      1 <0>        -0.1314
     17 C13         1.4774    1.3938   -3.4487 C.ar      1 <0>        -0.0784
     18 S1          5.4300    1.7067   -4.1248 S.3       1 <0>        -0.1250
     19 C14         5.0939    3.4017   -4.6765 C.3       1 <0>        -0.1426
     20 C15        -0.6562   -1.4069   -4.7748 C.2       1 <0>         0.4061
     21 O2         -0.6970   -0.2633   -5.1840 O.2       1 <0>        -0.4622
     22 C16        -0.9615   -2.5358   -5.7190 C.3       1 <0>        -0.1603
     23 C17        -0.2144   -3.7896   -5.2513 C.3       1 <0>        -0.0523
     24 C18        -0.6276   -4.0842   -3.8082 C.3       1 <0>        -0.0895
     25 C19         1.2945   -3.5451   -5.3161 C.3       1 <0>        -0.1551
     26 C20        -0.5846   -4.9743   -6.1459 C.3       1 <0>        -0.1424
     27 H2          1.0042    1.8801    0.0026 H         1 <0>         0.0929
     28 H3         -0.5455    1.8639   -0.8728 H         1 <0>         0.0891
     29 H4         -0.5286    1.8543    0.9071 H         1 <0>         0.0847
     30 H5          0.2525   -4.0634   -1.3405 H         1 <0>         0.4267
     31 H6          2.3738   -1.7108   -2.4736 H         1 <0>         0.1146
     32 H7          4.5903   -0.8447   -3.1004 H         1 <0>         0.1245
     33 H8          2.8139    2.8976   -4.1688 H         1 <0>         0.1229
     34 H9          0.6014    2.0177   -3.5473 H         1 <0>         0.1266
     35 H10         4.6463    3.9677   -3.8596 H         1 <0>         0.0840
     36 H11         6.0269    3.8770   -4.9793 H         1 <0>         0.1092
     37 H12         4.4066    3.3790   -5.5222 H         1 <0>         0.0843
     38 H13        -2.0341   -2.7297   -5.7216 H         1 <0>         0.1024
     39 H14        -0.6345   -2.2697   -6.7241 H         1 <0>         0.0998
     40 H15        -0.0910   -4.9625   -3.4493 H         1 <0>         0.0938
     41 H16        -1.7002   -4.2743   -3.7697 H         1 <0>         0.1056
     42 H17         1.5549   -2.7072   -4.6695 H         1 <0>         0.0630
     43 H18         1.8221   -4.4388   -4.9828 H         1 <0>         0.0616
     44 H19         1.5817   -3.3151   -6.3422 H         1 <0>         0.0644
     45 H20        -0.3075   -4.7520   -7.1764 H         1 <0>         0.0657
     46 H21        -0.0513   -5.8637   -5.8101 H         1 <0>         0.0625
     47 H22        -1.6586   -5.1513   -6.0886 H         1 <0>         0.0614
@<TRIPOS>BOND
     1    1    2 1
     2    1   27 1
     3    1   28 1
     4    1   29 1
     5    2    6 2
     6    2    3 1
     7    3   10 1
     8    3    4 2
     9    4    5 1
    10    4    7 1
    11    5    6 1
    12    7    8 1
    13    7   30 1
    14    8   24 1
    15    8    9 2
    16    9   10 1
    17    9   20 1
    18   10   11 1
    19   10   12 1
    20   12   17 ar
    21   12   13 ar
    22   13   14 ar
    23   13   31 1
    24   14   15 ar
    25   14   32 1
    26   15   16 ar
    27   15   18 1
    28   16   17 ar
    29   16   33 1
    30   17   34 1
    31   18   19 1
    32   19   35 1
    33   19   36 1
    34   19   37 1
    35   20   21 2
    36   20   22 1
    37   22   23 1
    38   22   38 1
    39   22   39 1
    40   23   24 1
    41   23   25 1
    42   23   26 1
    43   24   40 1
    44   24   41 1
    45   25   42 1
    46   25   43 1
    47   25   44 1
    48   26   45 1
    49   26   46 1
    50   26   47 1
@<TRIPOS>MOLECULE
ZINC65148875
   48    51     0     0     0
SMALL
USER_CHARGES

@<TRIPOS>ATOM
      1 C1         -0.0178    1.4608    0.0101 C.3       1 <0>         0.0805
      2 N1          0.0021   -0.0041    0.0020 N.pl3     1 <0>        -0.4928
      3 C2          0.0079   -0.7860   -1.1303 C.2       1 <0>         0.0625
      4 C3          0.0558   -2.0683   -0.7939 C.2       1 <0>        -0.1688
      5 C4          0.1325   -2.1201    0.6779 C.ar      1 <0>        -0.0971
      6 C5          0.0235   -0.7980    1.1254 C.ar      1 <0>         0.1062
      7 C6         -0.0598   -0.5873    2.4986 C.ar      1 <0>        -0.1256
      8 C7          0.0226   -1.6631    3.3588 C.ar      1 <0>        -0.0969
      9 C8          0.2164   -2.9593    2.8912 C.ar      1 <0>        -0.1421
     10 C9          0.3050   -3.1840    1.5499 C.ar      1 <0>        -0.0639
     11 C10         0.7111   -4.5327    0.9977 C.3       1 <0>         0.1554
     12 N2          1.7099   -4.3113   -0.0602 N.am      1 <0>        -0.6168
     13 C11         1.3419   -4.0741   -1.4541 C.3       1 <0>         0.1359
     14 C12         0.0245   -3.3295   -1.6235 C.3       1 <0>        -0.0521
     15 C13         3.0165   -4.3276    0.2701 C.2       1 <0>         0.7072
     16 O1          3.8620   -4.1474   -0.5849 O.2       1 <0>        -0.5883
     17 N3          3.3858   -4.5436    1.5481 N.am      1 <0>        -0.7459
     18 C14         4.8060   -4.5613    1.9072 C.3       1 <0>         0.1441
     19 C15         4.9495   -4.8244    3.4076 C.3       1 <0>        -0.0909
     20 C16         6.4105   -4.8425    3.7769 C.ar      1 <0>        -0.0826
     21 C17         7.1204   -6.0278    3.7306 C.ar      1 <0>        -0.1134
     22 C18         8.4605   -6.0445    4.0694 C.ar      1 <0>        -0.1182
     23 C19         9.0908   -4.8758    4.4540 C.ar      1 <0>        -0.1211
     24 C20         8.3811   -3.6904    4.4994 C.ar      1 <0>        -0.1183
     25 C21         7.0420   -3.6730    4.1565 C.ar      1 <0>        -0.1135
     26 H1          1.0048    1.8381    0.0023 H         1 <0>         0.0682
     27 H2         -0.5450    1.8219   -0.8730 H         1 <0>         0.0826
     28 H3         -0.5280    1.8123    0.9069 H         1 <0>         0.0794
     29 H4         -0.0223   -0.4113   -2.1428 H         1 <0>         0.1675
     30 H5         -0.1885    0.4116    2.8883 H         1 <0>         0.1181
     31 H6         -0.0660   -1.4949    4.4219 H         1 <0>         0.1243
     32 H7          0.2903   -3.7823    3.5865 H         1 <0>         0.1250
     33 H8          1.1446   -5.1404    1.7920 H         1 <0>         0.0866
     34 H9         -0.1606   -5.0376    0.5812 H         1 <0>         0.0948
     35 H10         2.1331   -3.4941   -1.9292 H         1 <0>         0.0851
     36 H11         1.2659   -5.0353   -1.9625 H         1 <0>         0.0614
     37 H12        -0.7976   -3.9634   -1.2912 H         1 <0>         0.0756
     38 H13        -0.1154   -3.0713   -2.6732 H         1 <0>         0.0879
     39 H14         2.7113   -4.6874    2.2302 H         1 <0>         0.3954
     40 H15         5.3119   -5.3498    1.3500 H         1 <0>         0.0681
     41 H16         5.2547   -3.5985    1.6626 H         1 <0>         0.0664
     42 H17         4.4437   -4.0358    3.9647 H         1 <0>         0.0795
     43 H18         4.5009   -5.7872    3.6522 H         1 <0>         0.0795
     44 H19         6.6279   -6.9408    3.4302 H         1 <0>         0.1224
     45 H20         9.0149   -6.9706    4.0340 H         1 <0>         0.1228
     46 H21        10.1376   -4.8890    4.7194 H         1 <0>         0.1219
     47 H22         8.8734   -2.7775    4.8002 H         1 <0>         0.1224
     48 H23         6.4885   -2.7462    4.1884 H         1 <0>         0.1216
@<TRIPOS>BOND
     1    1    2 1
     2    1   26 1
     3    1   27 1
     4    1   28 1
     5    2    6 1
     6    2    3 1
     7    3    4 2
     8    3   29 1
     9    4   14 1
    10    4    5 1
    11    5   10 ar
    12    5    6 ar
    13    6    7 ar
    14    7    8 ar
    15    7   30 1
    16    8    9 ar
    17    8   31 1
    18    9   10 ar
    19    9   32 1
    20   10   11 1
    21   11   12 1
    22   11   33 1
    23   11   34 1
    24   12   13 1
    25   12   15 am
    26   13   14 1
    27   13   35 1
    28   13   36 1
    29   14   37 1
    30   14   38 1
    31   15   16 2
    32   15   17 am
    33   17   18 1
    34   17   39 1
    35   18   19 1
    36   18   40 1
    37   18   41 1
    38   19   20 1
    39   19   42 1
    40   19   43 1
    41   20   25 ar
    42   20   21 ar
    43   21   22 ar
    44   21   44 1
    45   22   23 ar
    46   22   45 1
    47   23   24 ar
    48   23   46 1
    49   24   25 ar
    50   24   47 1
    51   25   48 1
@<TRIPOS>MOLECULE
ZINC01616705
   33    35     0     0     0
SMALL
USER_CHARGES
3-[2-(2-hydroxyphenyl)ethyl]-3H-isobenzofuran-1-one
@<TRIPOS>ATOM
      1 C1          1.1556    3.1660    0.0081 C.ar      1 <0>        -0.1252
      2 C2          1.1737    1.7832    0.0004 C.ar      1 <0>        -0.1066
      3 C3         -0.0126    1.0758    0.0080 C.ar      1 <0>        -0.1436
      4 C4         -1.2232    1.7538    0.0174 C.ar      1 <0>         0.1056
      5 C5         -1.2386    3.1407    0.0304 C.ar      1 <0>        -0.1085
      6 C6         -0.0491    3.8437    0.0233 C.ar      1 <0>        -0.1009
      7 C7         -2.5516    3.8802    0.0465 C.3       1 <0>        -0.0795
      8 C8         -3.0444    4.0131    1.4888 C.3       1 <0>        -0.1116
      9 C9         -4.3774    4.7639    1.5052 C.3       1 <0>         0.1208
     10 H1         -5.0857    4.2826    0.8309 H         1 <0>         0.1276
     11 C10        -4.9361    4.7959    2.9055 C.ar      1 <0>        -0.0961
     12 C11        -5.3221    3.8168    3.7910 C.ar      1 <0>        -0.0970
     13 C12        -5.8096    4.1665    5.0392 C.ar      1 <0>        -0.0777
     14 C13        -5.9098    5.4990    5.3994 C.ar      1 <0>        -0.1242
     15 C14        -5.5251    6.4892    4.5194 C.ar      1 <0>        -0.0345
     16 C15        -5.0331    6.1445    3.2590 C.ar      1 <0>        -0.1939
     17 C16        -4.5522    6.9503    2.1220 C.2       1 <0>         0.5203
     18 O1         -4.5045    8.1639    2.1013 O.2       1 <0>        -0.4485
     19 O2         -4.1748    6.1489    1.1120 O.3       1 <0>        -0.3117
     20 O3         -2.3918    1.0600    0.0191 O.3       1 <0>        -0.4946
     21 H2          2.0843    3.7173    0.0025 H         1 <0>         0.1260
     22 H3          2.1162    1.2560   -0.0118 H         1 <0>         0.1269
     23 H4          0.0021   -0.0041    0.0020 H         1 <0>         0.1287
     24 H5         -0.0606    4.9237    0.0292 H         1 <0>         0.1274
     25 H6         -2.4151    4.8724   -0.3837 H         1 <0>         0.0830
     26 H7         -3.2866    3.3283   -0.5392 H         1 <0>         0.0846
     27 H8         -3.1809    3.0210    1.9190 H         1 <0>         0.0866
     28 H9         -2.3093    4.5651    2.0746 H         1 <0>         0.0782
     29 H10        -5.2449    2.7760    3.5132 H         1 <0>         0.1363
     30 H11        -6.1121    3.3969    5.7338 H         1 <0>         0.1389
     31 H12        -6.2908    5.7649    6.3743 H         1 <0>         0.1388
     32 H13        -5.6049    7.5279    4.8042 H         1 <0>         0.1378
     33 H14        -2.7258    0.8544    0.9029 H         1 <0>         0.3869
@<TRIPOS>BOND
     1    1    6 ar
     2    1    2 ar
     3    1   21 1
     4    2    3 ar
     5    2   22 1
     6    3    4 ar
     7    3   23 1
     8    4    5 ar
     9    4   20 1
    10    5    6 ar
    11    5    7 1
    12    6   24 1
    13    7    8 1
    14    7   25 1
    15    7   26 1
    16    8    9 1
    17    8   27 1
    18    8   28 1
    19    9   10 1
    20    9   19 1
    21    9   11 1
    22   11   16 ar
    23   11   12 ar
    24   12   13 ar
    25   12   29 1
    26   13   14 ar
    27   13   30 1
    28   14   15 ar
    29   14   31 1
    30   15   16 ar
    31   15   32 1
    32   16   17 1
    33   17   18 2
    34   17   19 1
    35   20   33 1
@<TRIPOS>MOLECULE
ZINC26420423
   37    39     0     0     0
SMALL
USER_CHARGES
6-(4-cyclohexylphenyl)pyridazin-3-ol
@<TRIPOS>ATOM
      1 C1         -2.5220   -0.3465    0.0012 C.ar      1 <0>        -0.0924
      2 C2         -3.7246   -1.0238    0.0033 C.ar      1 <0>        -0.1139
      3 C3         -4.9166   -0.3218    0.0071 C.ar      1 <0>        -0.0568
      4 C4         -4.9107    1.0614    0.0145 C.ar      1 <0>        -0.1187
      5 C5         -3.7140    1.7489    0.0177 C.ar      1 <0>        -0.0775
      6 C6         -2.5101    1.0470    0.0140 C.ar      1 <0>        -0.0490
      7 C7         -1.2207    1.7803    0.0174 C.2       1 <0>         0.1139
      8 C8         -0.0126    1.0758    0.0080 C.2       1 <0>        -0.0514
      9 C9          1.1635    1.8052    0.0006 C.2       1 <0>        -0.1309
     10 C10         1.0715    3.1959    0.0085 C.2       1 <0>         0.4086
     11 N1         -0.1166    3.7794    0.0225 N.am      1 <0>        -0.3909
     12 N2         -1.2095    3.1063    0.0294 N.2       1 <0>        -0.2131
     13 O1          2.1987    3.9511    0.0013 O.2       1 <0>        -0.6056
     14 C11        -6.2265   -1.0670    0.0036 C.3       1 <0>        -0.0515
     15 C12        -6.3127   -1.9527    1.2482 C.3       1 <0>        -0.1111
     16 C13        -7.6425   -2.7092    1.2447 C.3       1 <0>        -0.1214
     17 C14        -7.7298   -3.5816   -0.0092 C.3       1 <0>        -0.1223
     18 C15        -7.6436   -2.6959   -1.2538 C.3       1 <0>        -0.1214
     19 C16        -6.3136   -1.9393   -1.2502 C.3       1 <0>        -0.1111
     20 H1         -1.5920   -0.8956   -0.0067 H         1 <0>         0.1286
     21 H2         -3.7351   -2.1037   -0.0028 H         1 <0>         0.1287
     22 H3         -5.8443    1.6043    0.0174 H         1 <0>         0.1277
     23 H4         -3.7106    2.8289    0.0234 H         1 <0>         0.1341
     24 H5          0.0189    0.0763    0.0065 H         1 <0>         0.1458
     25 H6          2.0448    1.3328   -0.0101 H         1 <0>         0.1525
     26 H7         -0.1478    4.8789    0.0282 H         1 <0>         0.4830
     27 H8         -7.0477   -0.3351    0.0079 H         1 <0>         0.0803
     28 H9         -5.4812   -2.6729    1.2440 H         1 <0>         0.0655
     29 H10        -6.2500   -1.3256    2.1497 H         1 <0>         0.0642
     30 H11        -7.7045   -3.3460    2.1395 H         1 <0>         0.0636
     31 H12        -8.4740   -1.9891    1.2489 H         1 <0>         0.0627
     32 H13        -6.8983   -4.3018   -0.0134 H         1 <0>         0.0620
     33 H14        -8.6859   -4.1255   -0.0117 H         1 <0>         0.0619
     34 H15        -7.7062   -3.3231   -2.1552 H         1 <0>         0.0637
     35 H16        -8.4751   -1.9758   -1.2496 H         1 <0>         0.0627
     36 H17        -6.2517   -1.3025   -2.1450 H         1 <0>         0.0642
     37 H18        -5.4821   -2.6594   -1.2545 H         1 <0>         0.0655
@<TRIPOS>BOND
     1    1    6 ar
     2    1    2 ar
     3    1   20 1
     4    2    3 ar
     5    2   21 1
     6    3    4 ar
     7    3   14 1
     8    4    5 ar
     9    4   22 1
    10    5    6 ar
    11    5   23 1
    12    6    7 1
    13    7    8 1
    14    7   12 2
    15    8    9 2
    16    8   24 1
    17    9   10 1
    18    9   25 1
    19   10   13 2
    20   10   11 am
    21   11   12 1
    22   11   26 1
    23   14   19 1
    24   14   15 1
    25   14   27 1
    26   15   16 1
    27   15   28 1
    28   15   29 1
    29   16   17 1
    30   16   30 1
    31   16   31 1
    32   17   18 1
    33   17   32 1
    34   17   33 1
    35   18   19 1
    36   18   34 1
    37   18   35 1
    38   19   36 1
    39   19   37 1
@<TRIPOS>MOLECULE
ZINC43141955
   43    44     0     0     0
SMALL
USER_CHARGES

@<TRIPOS>ATOM
      1 C1         -0.3938    1.4182    1.0683 C.3       1 <0>        -0.1575
      2 C2         -0.2829   -0.0853    0.8072 C.3       1 <0>        -0.1162
      3 C3         -1.6759   -0.6616    0.5457 C.3       1 <0>        -0.1038
      4 H1         -2.3347   -0.4126    1.3776 H         1 <0>         0.0756
      5 C4         -1.5815   -2.1827    0.4065 C.3       1 <0>        -0.1159
      6 C5         -2.9788   -2.7634    0.1775 C.3       1 <0>        -0.1357
      7 C6         -3.5574   -2.1940   -1.1216 C.3       1 <0>         0.1081
      8 N1         -3.5174   -0.7269   -1.0540 N.am      1 <0>        -0.6242
      9 C7         -2.2401   -0.0677   -0.7488 C.3       1 <0>         0.1310
     10 C8         -4.6313    0.0011   -1.2680 C.2       1 <0>         0.7070
     11 O1         -4.6072    1.2075   -1.1181 O.2       1 <0>        -0.5672
     12 N2         -5.7718   -0.6082   -1.6479 N.am      1 <0>        -0.6800
     13 C9         -6.9021    0.1552   -1.9612 C.ar      1 <0>         0.1606
     14 C10        -6.7706    1.5075   -2.2490 C.ar      1 <0>        -0.1357
     15 C11        -7.8878    2.2580   -2.5582 C.ar      1 <0>        -0.1024
     16 C12        -9.1367    1.6644   -2.5810 C.ar      1 <0>        -0.1067
     17 C13        -9.2711    0.3185   -2.2945 C.ar      1 <0>        -0.0982
     18 C14        -8.1567   -0.4390   -1.9906 C.ar      1 <0>        -0.1224
     19 C15        -8.3032   -1.9073   -1.6845 C.3       1 <0>        -0.1096
     20 C16       -10.3539    2.4865   -2.9184 C.3       1 <0>        -0.1122
     21 H2          0.5986    1.8288    1.2547 H         1 <0>         0.0557
     22 H3         -0.8316    1.9068    0.1979 H         1 <0>         0.0575
     23 H4         -1.0274    1.5901    1.9385 H         1 <0>         0.0548
     24 H5          0.3507   -0.2572   -0.0629 H         1 <0>         0.0645
     25 H6          0.1549   -0.5739    1.6777 H         1 <0>         0.0665
     26 H7         -0.9418   -2.4308   -0.4405 H         1 <0>         0.0665
     27 H8         -1.1575   -2.6051    1.3174 H         1 <0>         0.0687
     28 H9         -2.9137   -3.8489    0.1017 H         1 <0>         0.0790
     29 H10        -3.6258   -2.4947    1.0125 H         1 <0>         0.0683
     30 H11        -2.9624   -2.5372   -1.9680 H         1 <0>         0.0751
     31 H12        -4.5889   -2.5264   -1.2387 H         1 <0>         0.0731
     32 H13        -2.4023    1.0024   -0.6196 H         1 <0>         0.0986
     33 H14        -1.5379   -0.2371   -1.5650 H         1 <0>         0.0680
     34 H15        -5.8093   -1.5758   -1.7043 H         1 <0>         0.4043
     35 H16        -5.7956    1.9718   -2.2306 H         1 <0>         0.1605
     36 H17        -7.7862    3.3096   -2.7821 H         1 <0>         0.1237
     37 H18       -10.2478   -0.1420   -2.3125 H         1 <0>         0.1245
     38 H19        -8.4661   -2.0411   -0.6151 H         1 <0>         0.0711
     39 H20        -9.1536   -2.3100   -2.2348 H         1 <0>         0.0724
     40 H21        -7.3959   -2.4328   -1.9824 H         1 <0>         0.0551
     41 H22       -10.5227    2.4608   -3.9949 H         1 <0>         0.0684
     42 H23       -11.2232    2.0764   -2.4044 H         1 <0>         0.0643
     43 H24       -10.1961    3.5169   -2.5999 H         1 <0>         0.0652
@<TRIPOS>BOND
     1    1    2 1
     2    1   21 1
     3    1   22 1
     4    1   23 1
     5    2    3 1
     6    2   24 1
     7    2   25 1
     8    3    4 1
     9    3    9 1
    10    3    5 1
    11    5    6 1
    12    5   26 1
    13    5   27 1
    14    6    7 1
    15    6   28 1
    16    6   29 1
    17    7    8 1
    18    7   30 1
    19    7   31 1
    20    8    9 1
    21    8   10 am
    22    9   32 1
    23    9   33 1
    24   10   11 2
    25   10   12 am
    26   12   13 1
    27   12   34 1
    28   13   18 ar
    29   13   14 ar
    30   14   15 ar
    31   14   35 1
    32   15   16 ar
    33   15   36 1
    34   16   17 ar
    35   16   20 1
    36   17   18 ar
    37   17   37 1
    38   18   19 1
    39   19   38 1
    40   19   39 1
    41   19   40 1
    42   20   41 1
    43   20   42 1
    44   20   43 1
@<TRIPOS>MOLECULE
ZINC49372023
   34    36     0     0     0
SMALL
USER_CHARGES

@<TRIPOS>ATOM
      1 C1          0.0884   -2.8058   -2.5365 C.3       1 <0>        -0.1161
      2 C2          0.0584   -2.0721   -1.2205 C.ar      1 <0>        -0.0873
      3 C3          0.0218   -0.6885   -1.2023 C.ar      1 <0>        -0.1036
      4 C4         -0.0059   -0.0050    0.0011 C.ar      1 <0>        -0.0868
      5 C5          0.0033   -0.6986    1.1925 C.ar      1 <0>        -0.1009
      6 C6          0.0403   -2.0975    1.1830 C.ar      1 <0>        -0.0774
      7 C7          0.0620   -2.7810   -0.0381 C.ar      1 <0>        -0.0969
      8 C8          0.0508   -2.8451    2.4485 C.2       1 <0>        -0.0113
      9 C9          0.1497   -2.1817    3.6271 C.2       1 <0>        -0.0446
     10 C10         0.2865   -2.7915    4.9598 C.2       1 <0>         0.4165
     11 O1          0.3343   -3.9772    5.2363 O.2       1 <0>        -0.4180
     12 C11         0.3532   -1.6456    5.8849 C.ar      1 <0>        -0.2743
     13 C12         0.4819   -1.5443    7.2708 C.ar      1 <0>         0.0088
     14 C13         0.5152   -0.3138    7.8633 C.ar      1 <0>        -0.1829
     15 C14         0.4208    0.8387    7.0876 C.ar      1 <0>         0.1843
     16 C15         0.2927    0.7530    5.7108 C.ar      1 <0>        -0.1693
     17 C16         0.2576   -0.4907    5.0922 C.ar      1 <0>         0.1542
     18 O2          0.1465   -0.8380    3.7915 O.3       1 <0>        -0.2068
     19 O3          0.4540    2.0567    7.6856 O.3       1 <0>        -0.4903
     20 C17        -0.0457    1.5015    0.0089 C.3       1 <0>        -0.1160
     21 H1         -0.9318   -3.0055   -2.8644 H         1 <0>         0.0726
     22 H2          0.5965   -2.1941   -3.2820 H         1 <0>         0.0681
     23 H3          0.6220   -3.7484   -2.4149 H         1 <0>         0.0684
     24 H4          0.0151   -0.1392   -2.1321 H         1 <0>         0.1249
     25 H5         -0.0176   -0.1638    2.1306 H         1 <0>         0.1446
     26 H6          0.0861   -3.8606   -0.0540 H         1 <0>         0.1291
     27 H7         -0.0202   -3.9227    2.4398 H         1 <0>         0.1658
     28 H8          0.5545   -2.4372    7.8740 H         1 <0>         0.1420
     29 H9          0.6148   -0.2348    8.9358 H         1 <0>         0.1450
     30 H10         0.2198    1.6530    5.1182 H         1 <0>         0.1466
     31 H11         1.3430    2.4262    7.7764 H         1 <0>         0.4030
     32 H12        -1.0826    1.8376    0.0026 H         1 <0>         0.0725
     33 H13         0.4513    1.8734    0.9049 H         1 <0>         0.0677
     34 H14         0.4653    1.8830   -0.8750 H         1 <0>         0.0683
@<TRIPOS>BOND
     1    1    2 1
     2    1   21 1
     3    1   22 1
     4    1   23 1
     5    2    7 ar
     6    2    3 ar
     7    3    4 ar
     8    3   24 1
     9    4    5 ar
    10    4   20 1
    11    5    6 ar
    12    5   25 1
    13    6    7 ar
    14    6    8 1
    15    7   26 1
    16    8    9 2
    17    8   27 1
    18    9   18 1
    19    9   10 1
    20   10   11 2
    21   10   12 1
    22   12   17 ar
    23   12   13 ar
    24   13   14 ar
    25   13   28 1
    26   14   15 ar
    27   14   29 1
    28   15   16 ar
    29   15   19 1
    30   16   17 ar
    31   16   30 1
    32   17   18 1
    33   19   31 1
    34   20   32 1
    35   20   33 1
    36   20   34 1
@<TRIPOS>MOLECULE
ZINC40156506
   47    49     0     0     0
SMALL
USER_CHARGES

@<TRIPOS>ATOM
      1 C1          0.2484    1.7283   -0.0309 C.3       1 <0>        -0.1691
      2 C2          0.1520    0.2024   -0.0864 C.3       1 <0>         0.1228
      3 N1          0.7502   -0.3691    1.1226 N.am      1 <0>        -0.6371
      4 C3          2.1343   -0.8457    1.2384 C.3       1 <0>         0.3269
      5 H1          2.8128   -0.0011    1.3585 H         1 <0>         0.1093
      6 N2          2.1747   -1.7070    2.4432 N.3       1 <0>        -0.6324
      7 C4          1.0773   -1.1695    3.2755 C.3       1 <0>         0.0705
      8 C5          0.1154   -0.5328    2.3024 C.2       1 <0>         0.5055
      9 O1         -1.0329   -0.2229    2.5395 O.2       1 <0>        -0.5049
     10 C6          0.3975   -2.3021    4.0386 C.3       1 <0>        -0.1054
     11 C7         -0.7441   -1.7359    4.8865 C.3       1 <0>        -0.1309
     12 C8         -0.1858   -0.7032    5.8677 C.3       1 <0>        -0.1149
     13 C9          0.4738    0.4369    5.0890 C.3       1 <0>        -0.1263
     14 C10         1.6201   -0.1215    4.2421 C.3       1 <0>        -0.0860
     15 C11         2.5117   -1.6433    0.0167 C.ar      1 <0>        -0.1275
     16 C12         1.5327   -2.2829   -0.7209 C.ar      1 <0>        -0.0949
     17 C13         1.8788   -3.0143   -1.8413 C.ar      1 <0>        -0.1286
     18 C14         3.2040   -3.1061   -2.2248 C.ar      1 <0>        -0.0682
     19 C15         4.1826   -2.4659   -1.4880 C.ar      1 <0>        -0.1233
     20 C16         3.8359   -1.7307   -0.3696 C.ar      1 <0>        -0.0486
     21 C17         4.9022   -1.0284    0.4308 C.3       1 <0>        -0.1196
     22 C18         3.5815   -3.9044   -3.4459 C.3       1 <0>        -0.1190
     23 H2          1.2957    2.0242    0.0310 H         1 <0>         0.0573
     24 H3         -0.1967    2.1535   -0.9305 H         1 <0>         0.0695
     25 H4         -0.2850    2.0944    0.8463 H         1 <0>         0.0599
     26 H5         -0.8953   -0.0935   -0.1483 H         1 <0>         0.0793
     27 H6          0.6854   -0.1637   -0.9637 H         1 <0>         0.0862
     28 H7          2.0069   -2.6726    2.2032 H         1 <0>         0.3500
     29 H8         -0.0017   -3.0284    3.3307 H         1 <0>         0.0619
     30 H9          1.1245   -2.7901    4.6878 H         1 <0>         0.0808
     31 H10        -1.4782   -1.2598    4.2364 H         1 <0>         0.0897
     32 H11        -1.2202   -2.5443    5.4415 H         1 <0>         0.0636
     33 H12        -0.9972   -0.3051    6.4769 H         1 <0>         0.0632
     34 H13         0.5536   -1.1777    6.5129 H         1 <0>         0.0605
     35 H14        -0.2636    0.9068    4.4382 H         1 <0>         0.0703
     36 H15         0.8650    1.1759    5.7883 H         1 <0>         0.0669
     37 H16         2.3637   -0.5795    4.8943 H         1 <0>         0.0828
     38 H17         2.0822    0.6883    3.6775 H         1 <0>         0.0636
     39 H18         0.4976   -2.2112   -0.4213 H         1 <0>         0.1211
     40 H19         1.1142   -3.5145   -2.4171 H         1 <0>         0.1234
     41 H20         5.2177   -2.5378   -1.7874 H         1 <0>         0.1257
     42 H21         5.2741   -1.6975    1.2067 H         1 <0>         0.0798
     43 H22         5.7229   -0.7442   -0.2279 H         1 <0>         0.0674
     44 H23         4.4810   -0.1353    0.8924 H         1 <0>         0.0692
     45 H24         3.5619   -3.2578   -4.3232 H         1 <0>         0.0732
     46 H25         4.5841   -4.3125   -3.3176 H         1 <0>         0.0686
     47 H26         2.8715   -4.7205   -3.5802 H         1 <0>         0.0680
@<TRIPOS>BOND
     1    1    2 1
     2    1   23 1
     3    1   24 1
     4    1   25 1
     5    2    3 1
     6    2   26 1
     7    2   27 1
     8    3    8 am
     9    3    4 1
    10    4    5 1
    11    4    6 1
    12    4   15 1
    13    6    7 1
    14    6   28 1
    15    7   14 1
    16    7    8 1
    17    7   10 1
    18    8    9 2
    19   10   11 1
    20   10   29 1
    21   10   30 1
    22   11   12 1
    23   11   31 1
    24   11   32 1
    25   12   13 1
    26   12   33 1
    27   12   34 1
    28   13   14 1
    29   13   35 1
    30   13   36 1
    31   14   37 1
    32   14   38 1
    33   15   20 ar
    34   15   16 ar
    35   16   17 ar
    36   16   39 1
    37   17   18 ar
    38   17   40 1
    39   18   19 ar
    40   18   22 1
    41   19   20 ar
    42   19   41 1
    43   20   21 1
    44   21   42 1
    45   21   43 1
    46   21   44 1
    47   22   45 1
    48   22   46 1
    49   22   47 1
@<TRIPOS>MOLECULE
ZINC13177884
   35    36     0     0     0
SMALL
USER_CHARGES
5-bromo-2-[[(2S)-2-phenoxypropanoyl]amino]benzoic acid
@<TRIPOS>ATOM
      1 C1         -4.1665    2.7454    1.3617 C.3       1 <0>        -0.1717
      2 C2         -3.6187    3.0151   -0.0412 C.3       1 <0>         0.0669
      3 H1         -3.3932    2.0680   -0.5314 H         1 <0>         0.1096
      4 C3         -4.6479    3.7652   -0.8468 C.2       1 <0>         0.5134
      5 O1         -4.3864    4.8616   -1.2943 O.2       1 <0>        -0.5138
      6 N1         -5.8590    3.2176   -1.0699 N.am      1 <0>        -0.6406
      7 C4         -6.7777    3.8693   -1.8893 C.ar      1 <0>         0.1901
      8 C5         -6.8493    5.2559   -1.8919 C.ar      1 <0>        -0.1350
      9 C6         -7.7599    5.9001   -2.7047 C.ar      1 <0>        -0.0742
     10 C7         -8.6087    5.1709   -3.5234 C.ar      1 <0>        -0.1196
     11 C8         -8.5523    3.7935   -3.5337 C.ar      1 <0>        -0.0288
     12 C9         -7.6313    3.1279   -2.7202 C.ar      1 <0>        -0.1382
     13 C10        -7.5605    1.6558   -2.7313 C.2       1 <0>         0.4994
     14 O2         -6.8245    1.0770   -1.9568 O.co2     1 <0>        -0.6330
     15 Br1        -9.8503    6.0701   -4.6306 Br        1 <0>        -0.0690
     16 O3         -2.4266    3.7972    0.0552 O.3       1 <0>        -0.2845
     17 C11        -1.2467    3.1233    0.0783 C.ar      1 <0>         0.1330
     18 C12        -1.2392    1.7370    0.1311 C.ar      1 <0>        -0.2123
     19 C13        -0.0385    1.0546    0.1607 C.ar      1 <0>        -0.0781
     20 C14         1.1552    1.7515    0.1262 C.ar      1 <0>        -0.1626
     21 C15         1.1504    3.1329    0.0673 C.ar      1 <0>        -0.0821
     22 C16        -0.0477    3.8203    0.0433 C.ar      1 <0>        -0.1509
     23 H2         -4.3920    3.6925    1.8520 H         1 <0>         0.0746
     24 H3         -5.0758    2.1488    1.2882 H         1 <0>         0.0845
     25 H4         -3.4221    2.2028    1.9444 H         1 <0>         0.0756
     26 H5         -6.0909    2.3697   -0.6599 H         1 <0>         0.4279
     27 H6         -6.1914    5.8311   -1.2573 H         1 <0>         0.1441
     28 H7         -7.8114    6.9789   -2.7033 H         1 <0>         0.1299
     29 H8         -9.2152    3.2299   -4.1733 H         1 <0>         0.1450
     30 H9         -2.1713    1.1919    0.1533 H         1 <0>         0.1328
     31 H10        -0.0321   -0.0245    0.2063 H         1 <0>         0.1251
     32 H11         2.0929    1.2160    0.1448 H         1 <0>         0.1219
     33 H12         2.0841    3.6750    0.0397 H         1 <0>         0.1276
     34 H13        -0.0509    4.8993   -0.0030 H         1 <0>         0.1310
     35 O4         -8.3120    0.9516   -3.6004 O.co2     1 <0>        -0.7380
@<TRIPOS>BOND
     1    1    2 1
     2    1   23 1
     3    1   24 1
     4    1   25 1
     5    2    3 1
     6    2    4 1
     7    2   16 1
     8    4    5 2
     9    4    6 am
    10    6    7 1
    11    6   26 1
    12    7   12 ar
    13    7    8 ar
    14    8    9 ar
    15    8   27 1
    16    9   10 ar
    17    9   28 1
    18   10   11 ar
    19   10   15 1
    20   11   12 ar
    21   11   29 1
    22   12   13 1
    23   13   14 2
    24   13   35 1
    25   16   17 1
    26   17   22 ar
    27   17   18 ar
    28   18   19 ar
    29   18   30 1
    30   19   20 ar
    31   19   31 1
    32   20   21 ar
    33   20   32 1
    34   21   22 ar
    35   21   33 1
    36   22   34 1
@<TRIPOS>MOLECULE
ZINC13391168
   41    42     0     0     0
SMALL
USER_CHARGES
4-[[2-(4-chlorophenoxy)-2-methyl-propanoyl]amino]-3-methyl-benzoic acid
@<TRIPOS>ATOM
      1 C1          0.5523    4.4467   -0.2271 C.3       1 <0>        -0.1068
      2 C2          0.8638    3.0994    0.3719 C.ar      1 <0>        -0.1284
      3 C3          2.1728    2.7144    0.5548 C.ar      1 <0>        -0.0697
      4 C4          2.4607    1.4642    1.1101 C.ar      1 <0>        -0.1167
      5 C5          1.4172    0.6092    1.4779 C.ar      1 <0>        -0.0651
      6 C6          0.1110    1.0008    1.2922 C.ar      1 <0>        -0.1308
      7 C7         -0.1719    2.2461    0.7391 C.ar      1 <0>         0.1243
      8 N1         -1.4963    2.6371    0.5472 N.am      1 <0>        -0.6573
      9 C8         -2.4280    1.7213    0.2161 C.2       1 <0>         0.4818
     10 O1         -2.1287    0.5479    0.1509 O.2       1 <0>        -0.4910
     11 C9         -3.8419    2.1554   -0.0731 C.3       1 <0>         0.1000
     12 C10        -4.4254    2.8472    1.1605 C.3       1 <0>        -0.1982
     13 C11        -3.8451    3.1293   -1.2532 C.3       1 <0>        -0.1379
     14 O2         -4.6345    1.0115   -0.3974 O.3       1 <0>        -0.2821
     15 C12        -4.7243    0.0359    0.5447 C.ar      1 <0>         0.1468
     16 C13        -4.0165    0.1499    1.7323 C.ar      1 <0>        -0.1735
     17 C14        -4.1128   -0.8405    2.6905 C.ar      1 <0>        -0.0728
     18 C15        -4.9064   -1.9507    2.4620 C.ar      1 <0>        -0.0699
     19 C16        -5.6091   -2.0687    1.2759 C.ar      1 <0>        -0.0750
     20 C17        -5.5195   -1.0779    0.3175 C.ar      1 <0>        -0.1402
     21 Cl1        -5.0211   -3.1968    3.6652 Cl        1 <0>        -0.0754
     22 C18         3.8616    1.0484    1.3079 C.2       1 <0>         0.4889
     23 O3          4.7672    1.7925    0.9878 O.co2     1 <0>        -0.6327
     24 H1          0.4679    5.1873    0.5682 H         1 <0>         0.0653
     25 H2          1.3526    4.7351   -0.9086 H         1 <0>         0.0698
     26 H3         -0.3889    4.3923   -0.7743 H         1 <0>         0.0557
     27 H4          2.9762    3.3774    0.2699 H         1 <0>         0.1310
     28 H5          1.6361   -0.3575    1.9069 H         1 <0>         0.1337
     29 H6         -0.6954    0.3407    1.5758 H         1 <0>         0.1318
     30 H7         -1.7471    3.5682    0.6519 H         1 <0>         0.4055
     31 H8         -3.7514    3.6397    1.4856 H         1 <0>         0.0799
     32 H9         -5.3964    3.2753    0.9118 H         1 <0>         0.0850
     33 H10        -4.5441    2.1193    1.9631 H         1 <0>         0.0868
     34 H11        -3.5115    2.6114   -2.1525 H         1 <0>         0.0772
     35 H12        -4.8545    3.5106   -1.4068 H         1 <0>         0.0827
     36 H13        -3.1714    3.9595   -1.0410 H         1 <0>         0.0838
     37 H14        -3.3937    1.0143    1.9093 H         1 <0>         0.1359
     38 H15        -3.5651   -0.7502    3.6169 H         1 <0>         0.1344
     39 H16        -6.2284   -2.9358    1.0995 H         1 <0>         0.1381
     40 H17        -6.0684   -1.1702   -0.6081 H         1 <0>         0.1383
     41 O4          4.1373   -0.1569    1.8438 O.co2     1 <0>        -0.7533
@<TRIPOS>BOND
     1    1    2 1
     2    1   24 1
     3    1   25 1
     4    1   26 1
     5    2    7 ar
     6    2    3 ar
     7    3    4 ar
     8    3   27 1
     9    4    5 ar
    10    4   22 1
    11    5    6 ar
    12    5   28 1
    13    6    7 ar
    14    6   29 1
    15    7    8 1
    16    8    9 am
    17    8   30 1
    18    9   10 2
    19    9   11 1
    20   11   12 1
    21   11   13 1
    22   11   14 1
    23   12   31 1
    24   12   32 1
    25   12   33 1
    26   13   34 1
    27   13   35 1
    28   13   36 1
    29   14   15 1
    30   15   20 ar
    31   15   16 ar
    32   16   17 ar
    33   16   37 1
    34   17   18 ar
    35   17   38 1
    36   18   19 ar
    37   18   21 1
    38   19   20 ar
    39   19   39 1
    40   20   40 1
    41   22   23 2
    42   22   41 1
@<TRIPOS>MOLECULE
ZINC39887289
   43    45     0     0     0
SMALL
USER_CHARGES

@<TRIPOS>ATOM
      1 C1         -0.4273    0.9740   -0.8216 C.3       1 <0>        -0.0729
      2 C2         -0.2494   -0.5005   -0.5663 C.2       1 <0>        -0.0073
      3 C3         -1.2391   -1.4045   -0.4543 C.2       1 <0>        -0.2181
      4 C4         -0.6257   -2.6564   -0.2188 C.2       1 <0>        -0.1815
      5 C5          0.7022   -2.4425   -0.2010 C.2       1 <0>        -0.0469
      6 O1          0.9245   -1.1358   -0.4178 O.3       1 <0>        -0.1509
      7 C6          1.7611   -3.4920    0.0192 C.3       1 <0>         0.4693
      8 H1          2.0569   -3.9154   -0.9407 H         1 <0>         0.1222
      9 N1          1.2252   -4.5523    0.8747 N.am      1 <0>        -0.7343
     10 C7          1.3348   -4.4730    2.2158 C.2       1 <0>         0.6006
     11 O2          0.8490   -5.3379    2.9221 O.2       1 <0>        -0.5607
     12 C8          2.0418   -3.3407    2.8188 C.2       1 <0>        -0.3228
     13 C9          2.8544   -2.5475    1.9916 C.2       1 <0>         0.4497
     14 N2          2.9283   -2.8798    0.6627 N.pl3     1 <0>        -0.5706
     15 C10         4.0972   -2.6381   -0.0656 C.ar      1 <0>         0.1701
     16 C11         4.1011   -1.6906   -1.0812 C.ar      1 <0>        -0.1032
     17 C12         5.2573   -1.4544   -1.7987 C.ar      1 <0>        -0.1108
     18 C13         6.4102   -2.1599   -1.5068 C.ar      1 <0>        -0.0824
     19 C14         6.4098   -3.1039   -0.4963 C.ar      1 <0>        -0.1051
     20 C15         5.2585   -3.3409    0.2288 C.ar      1 <0>        -0.1010
     21 C16         7.6699   -1.8998   -2.2921 C.3       1 <0>        -0.0535
     22 C17         8.7737   -1.4275   -1.3437 C.3       1 <0>        -0.1447
     23 C18         8.1123   -3.1886   -2.9880 C.3       1 <0>        -0.1428
     24 S1          3.7467   -1.1729    2.6389 S.3       1 <0>        -0.7752
     25 C19         1.9079   -3.0496    4.2145 C.1       1 <0>         0.3377
     26 N3          1.8016   -2.8187    5.3217 N.1       1 <0>        -0.4962
     27 H2          0.5496    1.4552   -0.8681 H         1 <0>         0.0760
     28 H3         -0.9490    1.1186   -1.7677 H         1 <0>         0.0818
     29 H4         -1.0113    1.4148   -0.0136 H         1 <0>         0.0836
     30 H5         -2.2990   -1.2111   -0.5292 H         1 <0>         0.1449
     31 H6         -1.1270   -3.6028   -0.0796 H         1 <0>         0.1461
     32 H7          0.7871   -5.3187    0.4729 H         1 <0>         0.4060
     33 H8          3.2008   -1.1395   -1.3099 H         1 <0>         0.1249
     34 H9          5.2609   -0.7180   -2.5887 H         1 <0>         0.1195
     35 H10         7.3118   -3.6534   -0.2711 H         1 <0>         0.1201
     36 H11         5.2600   -4.0750    1.0209 H         1 <0>         0.1209
     37 H12         7.4794   -1.1300   -3.0399 H         1 <0>         0.0744
     38 H13         8.9642   -2.1973   -0.5959 H         1 <0>         0.0570
     39 H14         9.6848   -1.2394   -1.9117 H         1 <0>         0.0535
     40 H15         8.4586   -0.5094   -0.8480 H         1 <0>         0.0577
     41 H16         8.3028   -3.9583   -2.2402 H         1 <0>         0.0566
     42 H17         7.3259   -3.5250   -3.6636 H         1 <0>         0.0548
     43 H18         9.0234   -3.0004   -3.5560 H         1 <0>         0.0538
@<TRIPOS>BOND
     1    1    2 1
     2    1   27 1
     3    1   28 1
     4    1   29 1
     5    2    6 1
     6    2    3 2
     7    3    4 1
     8    3   30 1
     9    4    5 2
    10    4   31 1
    11    5    6 1
    12    5    7 1
    13    7    8 1
    14    7   14 1
    15    7    9 1
    16    9   10 am
    17    9   32 1
    18   10   11 2
    19   10   12 1
    20   12   13 2
    21   12   25 1
    22   13   14 1
    23   13   24 1
    24   14   15 1
    25   15   20 ar
    26   15   16 ar
    27   16   17 ar
    28   16   33 1
    29   17   18 ar
    30   17   34 1
    31   18   19 ar
    32   18   21 1
    33   19   20 ar
    34   19   35 1
    35   20   36 1
    36   21   22 1
    37   21   23 1
    38   21   37 1
    39   22   38 1
    40   22   39 1
    41   22   40 1
    42   23   41 1
    43   23   42 1
    44   23   43 1
    45   25   26 3
@<TRIPOS>MOLECULE
ZINC16692678
   37    39     0     0     0
SMALL
USER_CHARGES

@<TRIPOS>ATOM
      1 C1          0.0158    1.1612   -0.4569 C.3       1 <0>         0.0214
      2 O1         -0.0085   -0.1729    0.0544 O.3       1 <0>        -0.3041
      3 C2         -1.2301   -0.7179    0.2998 C.ar      1 <0>         0.1022
      4 C3         -2.3749    0.0127    0.0487 C.ar      1 <0>        -0.1596
      5 C4         -3.6308   -0.5517    0.3026 C.ar      1 <0>        -0.0624
      6 C5         -3.7186   -1.8539    0.8098 C.ar      1 <0>        -0.1117
      7 C6         -2.5710   -2.5748    1.0571 C.ar      1 <0>        -0.1043
      8 C7         -1.3264   -2.0159    0.7994 C.ar      1 <0>         0.1033
      9 O2         -0.1986   -2.7344    1.0398 O.3       1 <0>        -0.4834
     10 C8         -4.8521    0.2197    0.0383 C.2       1 <0>         0.0663
     11 C9         -6.0485   -0.4147   -0.0561 C.2       1 <0>        -0.2151
     12 C10        -7.4041    0.1560   -0.1712 C.2       1 <0>         0.5625
     13 O3         -7.5881    1.3590   -0.1944 O.2       1 <0>        -0.4803
     14 N1         -8.4101   -0.6986   -0.2486 N.am      1 <0>        -0.6475
     15 C11        -8.1811   -2.0572   -0.2207 C.2       1 <0>         0.3849
     16 N2         -9.0567   -3.0349   -0.2861 N.2       1 <0>        -0.4627
     17 C12        -8.6342   -4.3360   -0.2427 C.ar      1 <0>         0.1020
     18 C13        -7.5349   -4.7421   -1.0025 C.ar      1 <0>        -0.1366
     19 C14        -7.1139   -6.0547   -0.9539 C.ar      1 <0>        -0.0877
     20 C15        -7.7786   -6.9690   -0.1542 C.ar      1 <0>        -0.0374
     21 C16        -8.8695   -6.5729    0.6012 C.ar      1 <0>        -0.0939
     22 C17        -9.2971   -5.2620    0.5660 C.ar      1 <0>        -0.0848
     23 Cl1        -7.2424   -8.6192   -0.0987 Cl        1 <0>        -0.0622
     24 S1         -6.4044   -2.1657   -0.0822 S.3       1 <0>        -0.0083
     25 H1          1.0491    1.4737   -0.6076 H         1 <0>         0.1053
     26 H2         -0.5166    1.1959   -1.4074 H         1 <0>         0.0587
     27 H3         -0.4665    1.8318    0.2544 H         1 <0>         0.0585
     28 H4         -2.3015    1.0168   -0.3422 H         1 <0>         0.1434
     29 H5         -4.6855   -2.2927    1.0073 H         1 <0>         0.1419
     30 H6         -2.6398   -3.5792    1.4483 H         1 <0>         0.1459
     31 H7          0.1531   -2.6268    1.9342 H         1 <0>         0.3933
     32 H8         -4.7985    1.2917   -0.0809 H         1 <0>         0.1627
     33 H9         -9.3180   -0.3661   -0.3254 H         1 <0>         0.4252
     34 H10        -7.0158   -4.0301   -1.6269 H         1 <0>         0.1395
     35 H11        -6.2642   -6.3702   -1.5412 H         1 <0>         0.1406
     36 H12        -9.3841   -7.2910    1.2224 H         1 <0>         0.1427
     37 H13       -10.1453   -4.9533    1.1590 H         1 <0>         0.1419
@<TRIPOS>BOND
     1    1    2 1
     2    1   25 1
     3    1   26 1
     4    1   27 1
     5    2    3 1
     6    3    8 ar
     7    3    4 ar
     8    4    5 ar
     9    4   28 1
    10    5    6 ar
    11    5   10 1
    12    6    7 ar
    13    6   29 1
    14    7    8 ar
    15    7   30 1
    16    8    9 1
    17    9   31 1
    18   10   11 2
    19   10   32 1
    20   11   24 1
    21   11   12 1
    22   12   13 2
    23   12   14 am
    24   14   15 1
    25   14   33 1
    26   15   16 2
    27   15   24 1
    28   16   17 1
    29   17   22 ar
    30   17   18 ar
    31   18   19 ar
    32   18   34 1
    33   19   20 ar
    34   19   35 1
    35   20   21 ar
    36   20   23 1
    37   21   22 ar
    38   21   36 1
    39   22   37 1
@<TRIPOS>MOLECULE
ZINC61222960
   35    35     0     0     0
SMALL
USER_CHARGES

@<TRIPOS>ATOM
      1 C1         -0.0199    1.5505   -0.0103 C.3       1 <0>        -0.1726
      2 C2          0.0053    0.0207   -0.0052 C.3       1 <0>         0.0994
      3 N1          0.6900   -0.4604   -1.2076 N.am      1 <0>        -0.6116
      4 C3          2.1382   -0.6807   -1.1873 C.3       1 <0>         0.1558
      5 C4          2.4292   -2.1197   -0.7565 C.3       1 <0>        -0.1730
      6 H1          1.9460   -2.3172    0.2004 H         1 <0>         0.0594
      7 C5          1.8874   -3.0871   -1.8107 C.3       1 <0>        -0.1092
      8 C6          3.9175   -2.3110   -0.6167 C.2       1 <0>         0.5014
      9 O1          4.6751   -1.3824   -0.8409 O.co2     1 <0>        -0.6982
     10 O2          4.3638   -3.3943   -0.2795 O.co2     1 <0>        -0.6973
     11 C7         -0.0124   -0.7004   -2.3326 C.2       1 <0>         0.7022
     12 O3          0.5559   -1.0997   -3.3306 O.2       1 <0>        -0.5554
     13 N2         -1.3447   -0.4978   -2.3513 N.am      1 <0>        -0.6822
     14 C8         -2.0569   -0.6333   -3.5496 C.ar      1 <0>         0.2139
     15 C9         -1.4099   -0.4628   -4.7660 C.ar      1 <0>        -0.1051
     16 C10        -2.1150   -0.5971   -5.9472 C.ar      1 <0>         0.0000
     17 C11        -3.4660   -0.9009   -5.9179 C.ar      1 <0>        -0.0517
     18 C12        -4.1130   -1.0708   -4.7070 C.ar      1 <0>        -0.0650
     19 C13        -3.4108   -0.9441   -3.5231 C.ar      1 <0>        -0.0690
     20 Cl1        -4.2217   -1.1656   -2.0042 Cl        1 <0>        -0.0492
     21 Cl2        -4.3490   -1.0683   -7.4032 Cl        1 <0>        -0.0444
     22 Cl3        -1.3067   -0.3841   -7.4687 Cl        1 <0>        -0.0357
     23 H2          1.0015    1.9307   -0.0234 H         1 <0>         0.0671
     24 H3         -0.5499    1.9022   -0.8954 H         1 <0>         0.0539
     25 H4         -0.5294    1.9085    0.8844 H         1 <0>         0.0675
     26 H5          0.5353   -0.3310    0.8800 H         1 <0>         0.0898
     27 H6         -1.0162   -0.3595    0.0080 H         1 <0>         0.0654
     28 H7          2.5457   -0.5103   -2.1838 H         1 <0>         0.0865
     29 H8          2.6009    0.0102   -0.4825 H         1 <0>         0.0818
     30 H9          2.3706   -2.8895   -2.7676 H         1 <0>         0.0507
     31 H10         2.0947   -4.1123   -1.5038 H         1 <0>         0.0468
     32 H11         0.8110   -2.9487   -1.9118 H         1 <0>         0.0325
     33 H12        -1.8104   -0.2581   -1.5348 H         1 <0>         0.4106
     34 H13        -0.3566   -0.2252   -4.7893 H         1 <0>         0.1802
     35 H14        -5.1667   -1.3069   -4.6868 H         1 <0>         0.1550
@<TRIPOS>BOND
     1    1    2 1
     2    1   23 1
     3    1   24 1
     4    1   25 1
     5    2    3 1
     6    2   26 1
     7    2   27 1
     8    3    4 1
     9    3   11 am
    10    4    5 1
    11    4   28 1
    12    4   29 1
    13    5    6 1
    14    5    7 1
    15    5    8 1
    16    7   30 1
    17    7   31 1
    18    7   32 1
    19    8    9 2
    20    8   10 1
    21   11   12 2
    22   11   13 am
    23   13   14 1
    24   13   33 1
    25   14   19 ar
    26   14   15 ar
    27   15   16 ar
    28   15   34 1
    29   16   17 ar
    30   16   22 1
    31   17   18 ar
    32   17   21 1
    33   18   19 ar
    34   18   35 1
    35   19   20 1
@<TRIPOS>MOLECULE
ZINC09861426
   54    58     0     0     0
SMALL
USER_CHARGES
1-[4-(2-furylcarbonyl)piperazin-1-yl]-2-[5-(2-thienyl)-9-thia-4-azabicyclo[4.3.0]nona-7,10-dien-4-yl]-ethanone
@<TRIPOS>ATOM
      1 C1          2.6086   -3.4707   -9.0726 C.2       1 <0>        -0.2187
      2 C2          1.3846   -2.8430   -9.3521 C.2       1 <0>        -0.1010
      3 C3          0.9777   -2.2434   -8.1948 C.2       1 <0>        -0.0967
      4 O1          1.9026   -2.4967   -7.2458 O.3       1 <0>        -0.1677
      5 C4          2.8876   -3.2365   -7.7713 C.2       1 <0>        -0.0047
      6 C5         -0.2525   -1.4658   -8.0134 C.2       1 <0>         0.6104
      7 O2         -1.0801   -1.4197   -8.9044 O.2       1 <0>        -0.5039
      8 N1         -0.4664   -0.8022   -6.8600 N.am      1 <0>        -0.6136
      9 C6         -1.7565   -0.1475   -6.6019 C.3       1 <0>         0.0990
     10 C7         -1.5004    1.3297   -6.2787 C.3       1 <0>         0.0955
     11 N2         -0.4478    1.4111   -5.2563 N.am      1 <0>        -0.5858
     12 C8          0.8443    0.7610   -5.5167 C.3       1 <0>         0.0810
     13 C9          0.5862   -0.7209   -5.8376 C.3       1 <0>         0.0811
     14 C10        -0.6617    2.0746   -4.1028 C.2       1 <0>         0.5134
     15 O3         -1.7304    2.6115   -3.9013 O.2       1 <0>        -0.5238
     16 C11         0.4270    2.1496   -3.0636 C.3       1 <0>        -0.0336
     17 C12        -0.2930    4.3461   -2.3185 C.3       1 <0>        -0.0004
     18 C13        -0.3724    5.2151   -1.0519 C.3       1 <0>        -0.0605
     19 C14        -1.2562    4.5129   -0.0733 C.2       1 <0>        -0.1908
     20 C15        -1.6700    3.2162   -0.1354 C.2       1 <0>        -0.1384
     21 C16        -2.4987    2.7775    0.8945 C.2       1 <0>        -0.1435
     22 C17        -2.8510    3.6266    1.8881 C.2       1 <0>        -0.1517
     23 S1         -2.0087    5.1274    1.4066 S.3       1 <0>         0.1428
     24 C18        -1.2170    2.3359   -1.2964 C.3       1 <0>         0.1955
     25 H1         -2.0201    2.2544   -2.0288 H         1 <0>         0.1855
     26 C19        -0.8602    0.9649   -0.7825 C.2       1 <0>        -0.2429
     27 C20        -1.5942   -0.1743   -0.8089 C.2       1 <0>        -0.0796
     28 C21        -1.0565   -1.3306   -0.2755 C.2       1 <0>        -0.1683
     29 C22         0.1846   -1.2887    0.2678 C.2       1 <0>        -0.1139
     30 S2          0.6358    0.4216    0.0262 S.3       1 <0>         0.0448
     31 H2          3.2118   -4.0378   -9.7661 H         1 <0>         0.1618
     32 H3          0.8663   -2.8340  -10.2995 H         1 <0>         0.1636
     33 H4          3.7611   -3.5879   -7.2422 H         1 <0>         0.2143
     34 H5         -2.2475   -0.6274   -5.7554 H         1 <0>         0.0800
     35 H6         -2.3890   -0.2241   -7.4864 H         1 <0>         0.1173
     36 H7         -2.4151    1.7851   -5.8990 H         1 <0>         0.1160
     37 H8         -1.1775    1.8531   -7.1786 H         1 <0>         0.0905
     38 H9          1.3315    1.2423   -6.3647 H         1 <0>         0.0963
     39 H10         1.4784    0.8407   -4.6337 H         1 <0>         0.0976
     40 H11         0.2620   -1.2417   -4.9366 H         1 <0>         0.0802
     41 H12         1.5000   -1.1790   -6.2161 H         1 <0>         0.1281
     42 H13         1.3116    2.6161   -3.4971 H         1 <0>         0.1639
     43 H14         0.6758    1.1439   -2.7248 H         1 <0>         0.1573
     44 H15        -1.2356    4.4062   -2.8625 H         1 <0>         0.1555
     45 H16         0.5204    4.6984   -2.9528 H         1 <0>         0.1399
     46 H17        -0.7948    6.1893   -1.2982 H         1 <0>         0.1322
     47 H18         0.6234    5.3402   -0.6266 H         1 <0>         0.1115
     48 H19        -2.8603    1.7599    0.9004 H         1 <0>         0.1396
     49 H20        -3.4781    3.4444    2.7482 H         1 <0>         0.1991
     50 H21        -2.5832   -0.1791   -1.2428 H         1 <0>         0.1438
     51 H22        -1.6185   -2.2528   -0.2880 H         1 <0>         0.1514
     52 H23         0.7531   -2.0838    0.7272 H         1 <0>         0.2006
     53 N3         -0.0114    2.9474   -1.8999 N.4       1 <0>        -0.3803
     54 H24         0.7405    2.9565   -1.2008 H         1 <0>         0.4302
@<TRIPOS>BOND
     1    1    5 2
     2    1    2 1
     3    1   31 1
     4    2    3 2
     5    2   32 1
     6    3    4 1
     7    3    6 1
     8    4    5 1
     9    5   33 1
    10    6    7 2
    11    6    8 am
    12    8   13 1
    13    8    9 1
    14    9   10 1
    15    9   34 1
    16    9   35 1
    17   10   11 1
    18   10   36 1
    19   10   37 1
    20   11   12 1
    21   11   14 am
    22   12   13 1
    23   12   38 1
    24   12   39 1
    25   13   40 1
    26   13   41 1
    27   14   15 2
    28   14   16 1
    29   16   42 1
    30   16   43 1
    31   16   53 1
    32   17   18 1
    33   17   44 1
    34   17   45 1
    35   17   53 1
    36   18   19 1
    37   18   46 1
    38   18   47 1
    39   19   23 1
    40   19   20 2
    41   20   21 1
    42   20   24 1
    43   21   22 2
    44   21   48 1
    45   22   23 1
    46   22   49 1
    47   24   25 1
    48   24   26 1
    49   24   53 1
    50   26   30 1
    51   26   27 2
    52   27   28 1
    53   27   50 1
    54   28   29 2
    55   28   51 1
    56   29   30 1
    57   29   52 1
    58   53   54 1
@<TRIPOS>MOLECULE
ZINC20786110
   62    65     0     0     0
SMALL
USER_CHARGES
5-[[(3S)-3-(6,7-dimethoxy-3,4-dihydro-1H-isoquinolin-2-yl)-1-piperidyl]methyl]-N,N-dimethyl-thiazol-2-amine
@<TRIPOS>ATOM
      1 C1         -6.4928   -0.2534    4.7614 C.3       1 <0>         0.0883
      2 N1         -5.6118   -1.3883    4.4749 N.pl3     1 <0>        -0.5651
      3 C2         -5.3906   -2.4190    5.4923 C.3       1 <0>         0.0849
      4 C3         -4.9875   -1.4870    3.2413 C.2       1 <0>         0.3616
      5 N2         -5.0594   -0.6696    2.2081 N.2       1 <0>        -0.5935
      6 C4         -4.3877   -0.9117    1.0980 C.2       1 <0>         0.0979
      7 C5         -3.6266   -2.0302    1.0345 C.2       1 <0>        -0.2928
      8 S1         -3.9093   -2.7176    2.6594 S.3       1 <0>         0.0314
      9 C6         -2.7719   -2.5487   -0.0932 C.3       1 <0>         0.1527
     10 N3         -1.4137   -2.0029    0.0310 N.3       1 <0>        -0.5117
     11 C7         -0.7492   -2.5142    1.2366 C.3       1 <0>         0.0369
     12 C8          0.7066   -2.0428    1.2572 C.3       1 <0>        -0.1141
     13 C9          0.7425   -0.5121    1.2423 C.3       1 <0>        -0.1430
     14 C10         0.0021   -0.0041    0.0020 C.3       1 <0>         0.0373
     15 H1          0.5212   -0.3166   -0.9160 H         1 <0>         0.1473
     16 C11        -1.4333   -0.5346    0.0178 C.3       1 <0>         0.0285
     17 N4         -0.0178    1.4648    0.0101 N.4       1 <0>        -0.3959
     18 C12         1.3487    2.0108   -0.0000 C.3       1 <0>         0.0019
     19 C13         1.2755    3.4950   -0.3596 C.3       1 <0>        -0.1011
     20 C14         0.2584    4.1865    0.5120 C.ar      1 <0>        -0.0846
     21 C15         0.2908    5.5711    0.5919 C.ar      1 <0>        -0.1674
     22 C16        -0.6254    6.2484    1.3764 C.ar      1 <0>         0.1302
     23 C17        -1.5843    5.5336    2.0886 C.ar      1 <0>         0.1184
     24 C18        -1.6114    4.1532    2.0066 C.ar      1 <0>        -0.1560
     25 C19        -0.6892    3.4779    1.2194 C.ar      1 <0>        -0.1269
     26 C20        -0.7586    1.9739    1.1686 C.3       1 <0>         0.0453
     27 O1         -2.4909    6.1898    2.8613 O.3       1 <0>        -0.2964
     28 C21        -3.4450    5.3900    3.5628 C.3       1 <0>         0.0191
     29 O2         -0.5897    7.6058    1.4512 O.3       1 <0>        -0.2965
     30 C22         0.4224    8.2709    0.6927 C.3       1 <0>         0.0178
     31 H2         -6.5340    0.4093    3.8844 H         1 <0>         0.0907
     32 H3         -6.1023    0.3050    5.6249 H         1 <0>         0.0673
     33 H4         -7.5035   -0.6224    4.9900 H         1 <0>         0.0698
     34 H5         -4.7055   -3.1834    5.0969 H         1 <0>         0.0765
     35 H6         -6.3507   -2.8874    5.7544 H         1 <0>         0.0794
     36 H7         -4.9495   -1.9600    6.3894 H         1 <0>         0.0776
     37 H8         -4.4462   -0.2351    0.2582 H         1 <0>         0.1600
     38 H9         -2.7314   -3.6470   -0.0475 H         1 <0>         0.1006
     39 H10        -3.2056   -2.2376   -1.0550 H         1 <0>         0.1068
     40 H11        -1.2689   -2.1369    2.1297 H         1 <0>         0.0496
     41 H12        -0.7780   -3.6138    1.2328 H         1 <0>         0.0927
     42 H13         1.1994   -2.4141    2.1679 H         1 <0>         0.0899
     43 H14         1.2307   -2.4323    0.3720 H         1 <0>         0.0861
     44 H15         0.2539   -0.1251    2.1486 H         1 <0>         0.0815
     45 H16         1.7876   -0.1701    1.2147 H         1 <0>         0.0907
     46 H17        -1.9635   -0.1831   -0.8796 H         1 <0>         0.0984
     47 H18        -1.9498   -0.1667    0.9166 H         1 <0>         0.0630
     48 H19         1.8001    1.8876    0.9955 H         1 <0>         0.1296
     49 H20         1.9529    1.4732   -0.7457 H         1 <0>         0.1385
     50 H21         2.2607    3.9589   -0.2042 H         1 <0>         0.1225
     51 H22         0.9817    3.6027   -1.4142 H         1 <0>         0.1050
     52 H23         1.0357    6.1235    0.0384 H         1 <0>         0.1465
     53 H24        -2.3546    3.5973    2.5590 H         1 <0>         0.1432
     54 H25        -1.8123    1.6670    1.0937 H         1 <0>         0.1363
     55 H26        -0.3222    1.5646    2.0916 H         1 <0>         0.1335
     56 H27        -4.1129    6.0421    4.1447 H         1 <0>         0.1119
     57 H28        -2.9189    4.7036    4.2426 H         1 <0>         0.0582
     58 H29        -4.0375    4.8087    2.8410 H         1 <0>         0.0598
     59 H30         0.3384    9.3574    0.8426 H         1 <0>         0.1123
     60 H31         0.2941    8.0369   -0.3744 H         1 <0>         0.0610
     61 H32         1.4138    7.9303    1.0261 H         1 <0>         0.0609
     62 H33        -0.5346    1.7960   -0.9027 H         1 <0>         0.4456
@<TRIPOS>BOND
     1    1    2 1
     2    1   31 1
     3    1   32 1
     4    1   33 1
     5    2    3 1
     6    2    4 1
     7    3   34 1
     8    3   35 1
     9    3   36 1
    10    4    8 1
    11    4    5 2
    12    5    6 1
    13    6    7 2
    14    6   37 1
    15    7    8 1
    16    7    9 1
    17    9   10 1
    18    9   38 1
    19    9   39 1
    20   10   16 1
    21   10   11 1
    22   11   12 1
    23   11   40 1
    24   11   41 1
    25   12   13 1
    26   12   42 1
    27   12   43 1
    28   13   14 1
    29   13   44 1
    30   13   45 1
    31   14   15 1
    32   14   16 1
    33   14   17 1
    34   16   46 1
    35   16   47 1
    36   17   26 1
    37   17   18 1
    38   17   62 1
    39   18   19 1
    40   18   48 1
    41   18   49 1
    42   19   20 1
    43   19   50 1
    44   19   51 1
    45   20   25 ar
    46   20   21 ar
    47   21   22 ar
    48   21   52 1
    49   22   23 ar
    50   22   29 1
    51   23   24 ar
    52   23   27 1
    53   24   25 ar
    54   24   53 1
    55   25   26 1
    56   26   54 1
    57   26   55 1
    58   27   28 1
    59   28   56 1
    60   28   57 1
    61   28   58 1
    62   29   30 1
    63   30   59 1
    64   30   60 1
    65   30   61 1
@<TRIPOS>MOLECULE
ZINC35785804
   58    62     0     0     0
SMALL
USER_CHARGES

@<TRIPOS>ATOM
      1 C1         -0.0167    1.3795    0.0096 C.ar      1 <0>        -0.0855
      2 C2          1.1682    2.0941    0.0022 C.ar      1 <0>        -0.1239
      3 C3          2.3774    1.4307   -0.0134 C.ar      1 <0>        -0.0723
      4 C4          2.4040    0.0342   -0.0211 C.ar      1 <0>        -0.0617
      5 C5          1.2040   -0.6807   -0.0130 C.ar      1 <0>        -0.0781
      6 C6          0.0021   -0.0041    0.0020 C.ar      1 <0>        -0.1194
      7 C7          3.6931   -0.6822   -0.0382 C.2       1 <0>         0.2005
      8 N1          4.8537   -0.1238   -0.0415 N.2       1 <0>        -0.2750
      9 N2          5.9181   -1.0227   -0.0587 N.am      1 <0>        -0.4483
     10 C8          5.3830   -2.3935   -0.0683 C.3       1 <0>         0.1587
     11 H1          5.7042   -2.9369    0.8204 H         1 <0>         0.1157
     12 C9          3.8557   -2.1854   -0.0478 C.3       1 <0>        -0.1351
     13 C10         5.8111   -3.1213   -1.3165 C.ar      1 <0>        -0.1346
     14 C11         6.2623   -2.4090   -2.4117 C.ar      1 <0>        -0.0802
     15 C12         6.6550   -3.0762   -3.5568 C.ar      1 <0>        -0.1249
     16 C13         6.5970   -4.4567   -3.6081 C.ar      1 <0>        -0.0781
     17 C14         6.1467   -5.1709   -2.5143 C.ar      1 <0>        -0.1439
     18 C15         5.7579   -4.5038   -1.3647 C.ar      1 <0>         0.1180
     19 F1          5.3219   -5.2013   -0.2930 F         1 <0>        -0.1312
     20 C16         7.2244   -0.6910   -0.0655 C.2       1 <0>         0.5389
     21 O1          8.0708   -1.5599   -0.0812 O.2       1 <0>        -0.5051
     22 C17         7.6336    0.7594   -0.0536 C.3       1 <0>        -0.0160
     23 N3          9.0994    0.8547   -0.0641 N.4       1 <0>        -0.3742
     24 C18         9.6147    0.3060   -1.3242 C.3       1 <0>        -0.0124
     25 C19        11.1450    0.3243   -1.3048 C.3       1 <0>        -0.1597
     26 C20        11.6294    1.7655   -1.1303 C.3       1 <0>         0.2469
     27 C21        11.0230    2.3583    0.1437 C.3       1 <0>        -0.1470
     28 C22         9.4975    2.2612    0.0680 C.3       1 <0>         0.0014
     29 O2         13.0622    1.7815   -1.0320 O.3       1 <0>        -0.3574
     30 C23        13.5219    2.0615   -2.3765 C.3       1 <0>         0.0135
     31 C24        12.4365    3.0445   -2.8823 C.3       1 <0>         0.0216
     32 O3         11.2325    2.5483   -2.2627 O.3       1 <0>        -0.3792
     33 H2         -0.9606    1.9041    0.0260 H         1 <0>         0.1326
     34 H3          1.1461    3.1739    0.0081 H         1 <0>         0.1328
     35 H4          3.3014    1.9898   -0.0199 H         1 <0>         0.1312
     36 H5          1.2172   -1.7606   -0.0192 H         1 <0>         0.1319
     37 H6         -0.9265   -0.5555    0.0079 H         1 <0>         0.1353
     38 H7          3.4201   -2.6229    0.8505 H         1 <0>         0.1236
     39 H8          3.4016   -2.6134   -0.9416 H         1 <0>         0.1189
     40 H9          6.3078   -1.3306   -2.3729 H         1 <0>         0.1175
     41 H10         7.0072   -2.5188   -4.4122 H         1 <0>         0.1328
     42 H11         6.9034   -4.9770   -4.5035 H         1 <0>         0.1402
     43 H12         6.1011   -6.2492   -2.5547 H         1 <0>         0.1445
     44 H13         7.2308    1.2577   -0.9354 H         1 <0>         0.1641
     45 H14         7.2447    1.2393    0.8444 H         1 <0>         0.1663
     46 H15         9.2655   -0.7196   -1.4432 H         1 <0>         0.1495
     47 H16         9.2551    0.9103   -2.1571 H         1 <0>         0.1335
     48 H17        11.5058   -0.2840   -0.4754 H         1 <0>         0.1081
     49 H18        11.5258   -0.0766   -2.2440 H         1 <0>         0.1183
     50 H19        11.3807    1.8020    1.0101 H         1 <0>         0.1077
     51 H20        11.3173    3.4039    0.2346 H         1 <0>         0.1259
     52 H21         9.1406    2.8221   -0.7957 H         1 <0>         0.1400
     53 H22         9.0618    2.6779    0.9761 H         1 <0>         0.1401
     54 H23        14.5027    2.5367   -2.3624 H         1 <0>         0.1217
     55 H24        13.5383    1.1540   -2.9801 H         1 <0>         0.0844
     56 H25        12.6510    4.0599   -2.5491 H         1 <0>         0.0872
     57 H26        12.3558    3.0034   -3.9686 H         1 <0>         0.1114
     58 H27         9.4752    0.3260    0.7088 H         1 <0>         0.4284
@<TRIPOS>BOND
     1    1    6 ar
     2    1    2 ar
     3    1   33 1
     4    2    3 ar
     5    2   34 1
     6    3    4 ar
     7    3   35 1
     8    4    5 ar
     9    4    7 1
    10    5    6 ar
    11    5   36 1
    12    6   37 1
    13    7   12 1
    14    7    8 2
    15    8    9 1
    16    9   10 1
    17    9   20 am
    18   10   11 1
    19   10   12 1
    20   10   13 1
    21   12   38 1
    22   12   39 1
    23   13   18 ar
    24   13   14 ar
    25   14   15 ar
    26   14   40 1
    27   15   16 ar
    28   15   41 1
    29   16   17 ar
    30   16   42 1
    31   17   18 ar
    32   17   43 1
    33   18   19 1
    34   20   21 2
    35   20   22 1
    36   22   23 1
    37   22   44 1
    38   22   45 1
    39   23   28 1
    40   23   24 1
    41   23   58 1
    42   24   25 1
    43   24   46 1
    44   24   47 1
    45   25   26 1
    46   25   48 1
    47   25   49 1
    48   26   32 1
    49   26   27 1
    50   26   29 1
    51   27   28 1
    52   27   50 1
    53   27   51 1
    54   28   52 1
    55   28   53 1
    56   29   30 1
    57   30   31 1
    58   30   54 1
    59   30   55 1
    60   31   32 1
    61   31   56 1
    62   31   57 1
@<TRIPOS>MOLECULE
ZINC43746331
   70    75     0     0     0
SMALL
USER_CHARGES

@<TRIPOS>ATOM
      1 C1         -0.0187    1.5258    0.0104 C.3       1 <0>        -0.1553
      2 C2          0.0021   -0.0041    0.0020 C.3       1 <0>        -0.0462
      3 C3          0.7194   -0.4998   -1.2523 C.3       1 <0>        -0.1093
      4 C4          2.1243    0.1035   -1.3151 C.3       1 <0>        -0.1214
      5 C5          2.9469   -0.3850   -0.1187 C.3       1 <0>        -0.0887
      6 C6          2.1865   -0.0743    1.1525 C.2       1 <0>        -0.1147
      7 C7          2.7621    0.5599    2.1437 C.2       1 <0>        -0.1931
      8 C8          0.7444   -0.5161    1.2454 C.3       1 <0>        -0.0453
      9 H1          0.6816   -1.6030    1.2981 H         1 <0>         0.0789
     10 C9          0.0929    0.1228    2.4709 C.3       1 <0>        -0.1161
     11 C10        -1.3682   -0.2399    2.5700 C.3       1 <0>        -0.0990
     12 H2         -1.8281    0.3137    3.3887 H         1 <0>         0.1107
     13 C11        -2.1627    0.0018    1.2715 C.3       1 <0>         0.0924
     14 H3         -2.4449    1.0472    1.1464 H         1 <0>         0.1483
     15 C12        -1.4270   -0.5355    0.0535 C.3       1 <0>        -0.1400
     16 O1         -3.3123   -0.8661    1.4773 O.3       1 <0>        -0.3269
     17 C13        -2.8584   -2.0287    1.9925 C.2       1 <0>         0.4818
     18 O2         -3.3717   -3.1125    1.8446 O.2       1 <0>        -0.4452
     19 C14        -1.5946   -1.7501    2.7754 C.3       1 <0>        -0.1901
     20 H4         -0.7578   -2.3227    2.3754 H         1 <0>         0.1408
     21 C15        -1.8097   -2.0677    4.2566 C.3       1 <0>         0.0103
     22 N1         -1.9031   -3.5226    4.4369 N.4       1 <0>        -0.3924
     23 C16        -0.6182   -4.1425    4.0874 C.3       1 <0>        -0.0061
     24 C17        -0.7208   -5.6599    4.2570 C.3       1 <0>         0.0262
     25 N2         -1.0721   -5.9716    5.6497 N.3       1 <0>        -0.5325
     26 C18        -2.3444   -5.3369    6.0217 C.3       1 <0>         0.0184
     27 C19        -2.2284   -3.8222    5.8376 C.3       1 <0>        -0.0013
     28 C20        -1.1247   -7.4235    5.8670 C.3       1 <0>         0.1024
     29 C21        -1.2424   -7.7067    7.3424 C.ar      1 <0>        -0.0889
     30 C22        -0.1018   -7.8605    8.1084 C.ar      1 <0>        -0.0810
     31 C23        -0.2046   -8.1199    9.4623 C.ar      1 <0>        -0.0994
     32 C24        -1.4523   -8.2268   10.0550 C.ar      1 <0>         0.0444
     33 C25        -2.6013   -8.0718    9.2834 C.ar      1 <0>         0.0345
     34 C26        -2.4906   -7.8064    7.9281 C.ar      1 <0>        -0.1009
     35 O3         -3.6921   -8.2209   10.0904 O.3       1 <0>        -0.3081
     36 C27        -3.2051   -8.8720   11.2788 C.3       1 <0>         0.2126
     37 O4         -1.8232   -8.4728   11.3454 O.3       1 <0>        -0.3052
     38 H5          1.0039    1.9031    0.0027 H         1 <0>         0.0716
     39 H6         -0.5459    1.8868   -0.8726 H         1 <0>         0.0632
     40 H7         -0.5289    1.8773    0.9072 H         1 <0>         0.0586
     41 H8          0.7925   -1.5870   -1.2225 H         1 <0>         0.0633
     42 H9          0.1556   -0.1989   -2.1354 H         1 <0>         0.0702
     43 H10         2.6108   -0.2051   -2.2404 H         1 <0>         0.0696
     44 H11         2.0539    1.1909   -1.2875 H         1 <0>         0.0715
     45 H12         3.1034   -1.4608   -0.1975 H         1 <0>         0.0721
     46 H13         3.9093    0.1266   -0.1034 H         1 <0>         0.0732
     47 H14         3.7936    0.8690    2.0607 H         1 <0>         0.1015
     48 H15         2.2050    0.7737    3.0440 H         1 <0>         0.1015
     49 H16         0.6073   -0.2212    3.3682 H         1 <0>         0.0804
     50 H17         0.1873    1.2064    2.4006 H         1 <0>         0.0970
     51 H18        -1.9551   -0.2336   -0.8510 H         1 <0>         0.0923
     52 H19        -1.4036   -1.6238    0.1084 H         1 <0>         0.0657
     53 H20        -0.9706   -1.6829    4.8362 H         1 <0>         0.1500
     54 H21        -2.7326   -1.5992    4.5984 H         1 <0>         0.1389
     55 H22        -0.3717   -3.9086    3.0517 H         1 <0>         0.1309
     56 H23         0.1620   -3.7556    4.7428 H         1 <0>         0.1425
     57 H24        -1.4917   -6.0489    3.5917 H         1 <0>         0.0643
     58 H25         0.2370   -6.1188    4.0120 H         1 <0>         0.1273
     59 H26        -3.1420   -5.7206    5.3855 H         1 <0>         0.0636
     60 H27        -2.5710   -5.5602    7.0643 H         1 <0>         0.1286
     61 H28        -1.4399   -3.4369    6.4840 H         1 <0>         0.1414
     62 H29        -3.1756   -3.3507    6.0994 H         1 <0>         0.1361
     63 H30        -1.9889   -7.8375    5.3475 H         1 <0>         0.0597
     64 H31        -0.2145   -7.8820    5.4805 H         1 <0>         0.1029
     65 H32         0.8716   -7.7782    7.6479 H         1 <0>         0.1408
     66 H33         0.6881   -8.2396   10.0583 H         1 <0>         0.1408
     67 H34        -3.3799   -7.6813    7.3282 H         1 <0>         0.1314
     68 H35        -3.7476   -8.5220   12.1569 H         1 <0>         0.1378
     69 H36        -3.2868   -9.9547   11.1832 H         1 <0>         0.0907
     70 H37        -2.6272   -3.8897    3.8377 H         1 <0>         0.4262
@<TRIPOS>BOND
     1    1    2 1
     2    1   38 1
     3    1   39 1
     4    1   40 1
     5    2    8 1
     6    2   15 1
     7    2    3 1
     8    3    4 1
     9    3   41 1
    10    3   42 1
    11    4    5 1
    12    4   43 1
    13    4   44 1
    14    5    6 1
    15    5   45 1
    16    5   46 1
    17    6    7 2
    18    6    8 1
    19    7   47 1
    20    7   48 1
    21    8    9 1
    22    8   10 1
    23   10   11 1
    24   10   49 1
    25   10   50 1
    26   11   12 1
    27   11   19 1
    28   11   13 1
    29   13   14 1
    30   13   15 1
    31   13   16 1
    32   15   51 1
    33   15   52 1
    34   16   17 1
    35   17   18 2
    36   17   19 1
    37   19   20 1
    38   19   21 1
    39   21   22 1
    40   21   53 1
    41   21   54 1
    42   22   27 1
    43   22   23 1
    44   22   70 1
    45   23   24 1
    46   23   55 1
    47   23   56 1
    48   24   25 1
    49   24   57 1
    50   24   58 1
    51   25   26 1
    52   25   28 1
    53   26   27 1
    54   26   59 1
    55   26   60 1
    56   27   61 1
    57   27   62 1
    58   28   29 1
    59   28   63 1
    60   28   64 1
    61   29   34 ar
    62   29   30 ar
    63   30   31 ar
    64   30   65 1
    65   31   32 ar
    66   31   66 1
    67   32   37 1
    68   32   33 ar
    69   33   34 ar
    70   33   35 1
    71   34   67 1
    72   35   36 1
    73   36   37 1
    74   36   68 1
    75   36   69 1
@<TRIPOS>MOLECULE
ZINC63948343
   52    55     0     0     0
SMALL
USER_CHARGES

@<TRIPOS>ATOM
      1 C1         -0.0163    1.3482    0.0095 C.ar      1 <0>        -0.1529
      2 C2          1.1658    2.1014    0.0022 C.ar      1 <0>         0.0556
      3 C3          2.3912    1.5352   -0.0125 C.ar      1 <0>        -0.2112
      4 C4          2.5288    0.1198   -0.0218 C.ar      1 <0>         0.3274
      5 N1          3.5868   -0.6543   -0.0369 N.pl3     1 <0>        -0.5881
      6 C5          3.1432   -2.0528   -0.0408 C.3       1 <0>         0.0598
      7 C6          1.6315   -2.0084   -0.0255 C.2       1 <0>         0.0721
      8 C7          1.2951   -0.6984   -0.0144 C.ar      1 <0>        -0.1724
      9 C8          0.0021   -0.0041    0.0020 C.ar      1 <0>        -0.0099
     10 C9          0.6905   -3.1856   -0.0239 C.3       1 <0>        -0.0783
     11 C10         0.4565   -3.6534   -1.4617 C.3       1 <0>        -0.1394
     12 C11        -0.4845   -4.8305   -1.4601 C.2       1 <0>         0.5170
     13 O1         -0.9246   -5.2536   -0.4122 O.2       1 <0>        -0.5292
     14 N2         -0.8369   -5.4131   -2.6232 N.am      1 <0>        -0.6069
     15 C12        -0.3066   -4.9149   -3.9001 C.3       1 <0>         0.0917
     16 C13         0.3685   -6.0780   -4.6375 C.3       1 <0>         0.1005
     17 N3         -0.5526   -7.2231   -4.6516 N.pl3     1 <0>        -0.9986
     18 C14        -1.0829   -7.7212   -3.3746 C.3       1 <0>         0.1019
     19 C15        -1.7537   -6.5617   -2.6368 C.3       1 <0>         0.0980
     20 S1         -0.9856   -7.9389   -6.0807 S.o2      1 <0>         2.6896
     21 O2         -2.2337   -8.5789   -5.8525 O.2       1 <0>        -0.9419
     22 O3         -0.8053   -6.9610   -7.0958 O.2       1 <0>        -0.9454
     23 C16         0.1849   -9.2169   -6.3989 C.ar      1 <0>        -0.6702
     24 C17         1.3333   -8.9390   -7.1164 C.ar      1 <0>        -0.0151
     25 C18         2.2520   -9.9411   -7.3659 C.ar      1 <0>        -0.1115
     26 C19         2.0221  -11.2222   -6.8975 C.ar      1 <0>        -0.0374
     27 C20         0.8728  -11.4997   -6.1796 C.ar      1 <0>        -0.1099
     28 C21        -0.0428  -10.4958   -5.9261 C.ar      1 <0>        -0.0131
     29 Br1         3.2783  -12.5937   -7.2391 Br        1 <0>        -0.0251
     30 H1         -0.9665    1.8612    0.0259 H         1 <0>         0.1578
     31 H2          1.0933    3.1789    0.0083 H         1 <0>         0.1606
     32 H3          3.2717    2.1606   -0.0175 H         1 <0>         0.1600
     33 H4          3.4952   -2.5561   -0.9413 H         1 <0>         0.1725
     34 H5          3.5129   -2.5667    0.8465 H         1 <0>         0.1743
     35 H6         -0.9210   -0.5647    0.0081 H         1 <0>         0.1610
     36 H7          1.1268   -3.9987    0.5563 H         1 <0>         0.1201
     37 H8         -0.2596   -2.8905    0.4214 H         1 <0>         0.1180
     38 H9          0.0203   -2.8403   -2.0419 H         1 <0>         0.1068
     39 H10         1.4067   -3.9484   -1.9070 H         1 <0>         0.1054
     40 H11        -1.1225   -4.5217   -4.5066 H         1 <0>         0.0869
     41 H12         0.4239   -4.1284   -3.7110 H         1 <0>         0.0969
     42 H13         0.5966   -5.7794   -5.6607 H         1 <0>         0.1106
     43 H14         1.2877   -6.3543   -4.1209 H         1 <0>         0.0784
     44 H15        -1.8134   -8.5077   -3.5638 H         1 <0>         0.1121
     45 H16        -0.2670   -8.1145   -2.7682 H         1 <0>         0.0795
     46 H17        -1.9786   -6.8624   -1.6136 H         1 <0>         0.1120
     47 H18        -2.6749   -6.2883   -3.1513 H         1 <0>         0.0826
     48 H19         1.5126   -7.9389   -7.4824 H         1 <0>         0.1488
     49 H20         3.1491   -9.7240   -7.9268 H         1 <0>         0.1459
     50 H21         0.6929  -12.4998   -5.8136 H         1 <0>         0.1470
     51 H22        -0.9382  -10.7115   -5.3620 H         1 <0>         0.1504
     52 H23         4.5087   -0.3528   -0.0446 H         1 <0>         0.4554
@<TRIPOS>BOND
     1    1    9 ar
     2    1    2 ar
     3    1   30 1
     4    2    3 ar
     5    2   31 1
     6    3    4 ar
     7    3   32 1
     8    4    8 ar
     9    4    5 2
    10    5    6 1
    11    5   52 1
    12    6    7 1
    13    6   33 1
    14    6   34 1
    15    7    8 2
    16    7   10 1
    17    8    9 ar
    18    9   35 1
    19   10   11 1
    20   10   36 1
    21   10   37 1
    22   11   12 1
    23   11   38 1
    24   11   39 1
    25   12   13 2
    26   12   14 am
    27   14   19 1
    28   14   15 1
    29   15   16 1
    30   15   40 1
    31   15   41 1
    32   16   17 1
    33   16   42 1
    34   16   43 1
    35   17   18 1
    36   17   20 1
    37   18   19 1
    38   18   44 1
    39   18   45 1
    40   19   46 1
    41   19   47 1
    42   20   21 2
    43   20   22 2
    44   20   23 1
    45   23   28 ar
    46   23   24 ar
    47   24   25 ar
    48   24   48 1
    49   25   26 ar
    50   25   49 1
    51   26   27 ar
    52   26   29 1
    53   27   28 ar
    54   27   50 1
    55   28   51 1
@<TRIPOS>MOLECULE
ZINC09478501
   35    36     0     0     0
SMALL
USER_CHARGES
4-[4-methyl-1-(2-methylprop-2-enyl)-2,5-dioxo-imidazolidin-4-yl]benzonitrile
@<TRIPOS>ATOM
      1 C1          2.0513    2.4228   -4.6643 C.3       1 <0>        -0.1206
      2 C2          0.6033    2.5420   -4.2644 C.2       1 <0>        -0.1577
      3 C3         -0.3100    1.8471   -4.8960 C.2       1 <0>        -0.1580
      4 C4          0.2059    3.4608   -3.1379 C.3       1 <0>         0.1526
      5 N1          0.3554    2.7598   -1.8602 N.am      1 <0>        -0.5690
      6 C5         -0.6189    2.0351   -1.2757 C.2       1 <0>         0.5364
      7 O1         -1.7419    1.8472   -1.6922 O.2       1 <0>        -0.4544
      8 C6         -0.0184    1.5028    0.0103 C.3       1 <0>         0.1626
      9 N2          1.3534    2.0398    0.0001 N.am      1 <0>        -0.7192
     10 C7          1.4764    2.7594   -1.1299 C.2       1 <0>         0.7051
     11 O2          2.4924    3.3438   -1.4513 O.2       1 <0>        -0.5310
     12 C8         -0.7908    2.0224    1.2245 C.3       1 <0>        -0.1450
     13 C9          0.0021   -0.0041    0.0020 C.ar      1 <0>        -0.0695
     14 C10        -1.0211   -0.7032   -0.6133 C.ar      1 <0>        -0.1069
     15 C11        -1.0062   -2.0826   -0.6288 C.ar      1 <0>        -0.0634
     16 C12         0.0392   -2.7732   -0.0124 C.ar      1 <0>        -0.0160
     17 C13         1.0658   -2.0613    0.6113 C.ar      1 <0>        -0.0671
     18 C14         1.0410   -0.6820    0.6147 C.ar      1 <0>        -0.0971
     19 C15         0.0586   -4.2050   -0.0203 C.1       1 <0>         0.2473
     20 N3          0.0740   -5.3409   -0.0265 N.1       1 <0>        -0.4043
     21 H1          2.6577    3.0706   -4.0312 H         1 <0>         0.0711
     22 H2          2.3774    1.3896   -4.5450 H         1 <0>         0.0629
     23 H3          2.1664    2.7221   -5.7061 H         1 <0>         0.0687
     24 H4         -0.0253    1.1887   -5.7034 H         1 <0>         0.1043
     25 H5         -1.3478    1.9325   -4.6094 H         1 <0>         0.1043
     26 H6         -0.8330    3.7647   -3.2661 H         1 <0>         0.1022
     27 H7          0.8461    4.3429   -3.1454 H         1 <0>         0.1055
     28 H8          2.0351    1.9011    0.6760 H         1 <0>         0.4410
     29 H9         -0.3116    1.6701    2.1379 H         1 <0>         0.0852
     30 H10        -0.7948    3.1123    1.2134 H         1 <0>         0.0753
     31 H11        -1.8163    1.6549    1.1872 H         1 <0>         0.0892
     32 H12        -1.8312   -0.1678   -1.0861 H         1 <0>         0.1513
     33 H13        -1.8036   -2.6271   -1.1127 H         1 <0>         0.1400
     34 H14         1.8771   -2.5893    1.0902 H         1 <0>         0.1396
     35 H15         1.8346   -0.1301    1.0964 H         1 <0>         0.1345
@<TRIPOS>BOND
     1    1    2 1
     2    1   21 1
     3    1   22 1
     4    1   23 1
     5    2    3 2
     6    2    4 1
     7    3   24 1
     8    3   25 1
     9    4    5 1
    10    4   26 1
    11    4   27 1
    12    5   10 am
    13    5    6 am
    14    6    7 2
    15    6    8 1
    16    8    9 1
    17    8   12 1
    18    8   13 1
    19    9   10 am
    20    9   28 1
    21   10   11 2
    22   12   29 1
    23   12   30 1
    24   12   31 1
    25   13   18 ar
    26   13   14 ar
    27   14   15 ar
    28   14   32 1
    29   15   16 ar
    30   15   33 1
    31   16   17 ar
    32   16   19 1
    33   17   18 ar
    34   17   34 1
    35   18   35 1
    36   19   20 3
@<TRIPOS>MOLECULE
ZINC38612634
   35    36     0     0     0
SMALL
USER_CHARGES

@<TRIPOS>ATOM
      1 C1          2.1951    1.1380   -0.2032 C.3       1 <0>        -0.1217
      2 C2          1.6902   -0.2813   -0.1611 C.ar      1 <0>        -0.0670
      3 C3          0.8844   -0.6947    0.8850 C.ar      1 <0>        -0.1165
      4 C4          0.4189   -1.9924    0.9302 C.ar      1 <0>        -0.0798
      5 C5          0.7626   -2.8897   -0.0836 C.ar      1 <0>        -0.1110
      6 C6          1.5761   -2.4653   -1.1368 C.ar      1 <0>        -0.1183
      7 C7          2.0300   -1.1632   -1.1717 C.ar      1 <0>        -0.1155
      8 C8          0.2693   -4.2790   -0.0420 C.2       1 <0>         0.1477
      9 N1         -0.0372   -4.8920   -1.1438 N.2       1 <0>        -0.2262
     10 N2         -0.0526   -4.1889   -2.3555 N.am      1 <0>        -0.5832
     11 C9         -0.2528   -4.8476   -3.5143 C.2       1 <0>         0.5689
     12 O1         -0.4195   -6.0491   -3.5080 O.2       1 <0>        -0.4732
     13 C10        -0.2694   -4.0913   -4.8177 C.3       1 <0>        -0.0613
     14 H1          0.5100   -3.3295   -4.8297 H         1 <0>         0.1710
     15 C11        -1.6329   -3.4685   -5.0598 C.2       1 <0>        -0.1596
     16 C12        -2.0545   -4.0462   -6.1868 C.2       1 <0>        -0.0184
     17 N3         -1.1363   -4.9235   -6.6492 N.2       1 <0>        -0.1514
     18 N4         -0.1150   -5.0126   -5.9564 N.2       1 <0>        -0.1155
     19 C13        -3.3752   -3.7592   -6.8533 C.3       1 <0>        -0.0900
     20 C14         0.1210   -4.9866    1.2803 C.3       1 <0>        -0.0967
     21 H2          1.4808    1.7620   -0.7403 H         1 <0>         0.0756
     22 H3          2.3118    1.5124    0.8138 H         1 <0>         0.0713
     23 H4          3.1579    1.1662   -0.7134 H         1 <0>         0.0703
     24 H5          0.6194    0.0002    1.6681 H         1 <0>         0.1308
     25 H6         -0.2094   -2.3139    1.7476 H         1 <0>         0.1338
     26 H7          1.8458   -3.1538   -1.9240 H         1 <0>         0.1260
     27 H8          2.6558   -0.8325   -1.9875 H         1 <0>         0.1299
     28 H9          0.0807   -3.2281   -2.3606 H         1 <0>         0.3919
     29 H10        -2.1433   -2.7299   -4.4594 H         1 <0>         0.1789
     30 H11        -3.2539   -2.9405   -7.5627 H         1 <0>         0.0844
     31 H12        -3.7170   -4.6496   -7.3811 H         1 <0>         0.0841
     32 H13        -4.1101   -3.4798   -6.0983 H         1 <0>         0.0797
     33 H14        -0.8797   -4.8123    1.6755 H         1 <0>         0.0891
     34 H15         0.2746   -6.0565    1.1390 H         1 <0>         0.0868
     35 H16         0.8610   -4.6030    1.9826 H         1 <0>         0.0851
@<TRIPOS>BOND
     1    1    2 1
     2    1   21 1
     3    1   22 1
     4    1   23 1
     5    2    7 ar
     6    2    3 ar
     7    3    4 ar
     8    3   24 1
     9    4    5 ar
    10    4   25 1
    11    5    6 ar
    12    5    8 1
    13    6    7 ar
    14    6   26 1
    15    7   27 1
    16    8    9 2
    17    8   20 1
    18    9   10 1
    19   10   11 am
    20   10   28 1
    21   11   12 2
    22   11   13 1
    23   13   14 1
    24   13   18 1
    25   13   15 1
    26   15   16 2
    27   15   29 1
    28   16   17 1
    29   16   19 1
    30   17   18 2
    31   19   30 1
    32   19   31 1
    33   19   32 1
    34   20   33 1
    35   20   34 1
    36   20   35 1
@<TRIPOS>MOLECULE
ZINC45951631
   40    41     0     0     0
SMALL
USER_CHARGES

@<TRIPOS>ATOM
      1 C1         -0.3376    1.3969    0.0912 C.3       1 <0>        -0.1529
      2 C2         -0.2267   -0.1290    0.1038 C.3       1 <0>        -0.0865
      3 C3          0.6244   -0.5612    1.2700 C.ar      1 <0>         0.3933
      4 N1          0.1372   -1.4324    2.1305 N.ar      1 <0>        -0.5046
      5 C4          0.8524   -1.8389    3.1698 C.ar      1 <0>         0.1939
      6 C5          2.1274   -1.3383    3.3475 C.ar      1 <0>        -0.1525
      7 C6          2.6134   -0.4175    2.4173 C.ar      1 <0>         0.5266
      8 N2          1.8368   -0.0618    1.3978 N.ar      1 <0>        -0.4744
      9 N3          3.8857    0.1140    2.5517 N.pl3     1 <0>        -0.6646
     10 C7          5.0258   -0.4851    1.8447 C.3       1 <0>         0.1436
     11 C8          5.7347    0.6071    1.0377 C.3       1 <0>        -0.1104
     12 C9          6.1093    1.7621    1.9692 C.3       1 <0>        -0.1530
     13 C10         4.8396    2.3598    2.5796 C.3       1 <0>        -0.1101
     14 C11         4.1195    1.2912    3.3993 C.3       1 <0>         0.1436
     15 C12         6.8372    2.8235    1.1851 C.2       1 <0>         0.4928
     16 O1          6.7531    3.9932    1.5188 O.co2     1 <0>        -0.6952
     17 O2          7.5101    2.5126    0.2172 O.co2     1 <0>        -0.6947
     18 C13         2.9726   -1.7748    4.5163 C.3       1 <0>        -0.1141
     19 C14         0.2813   -2.8349    4.1459 C.3       1 <0>        -0.1428
     20 H1          0.6570    1.8327   -0.0035 H         1 <0>         0.0838
     21 H2         -0.9531    1.7095   -0.7522 H         1 <0>         0.0866
     22 H3         -0.7956    1.7356    1.0205 H         1 <0>         0.0608
     23 H4         -1.2212   -0.5648    0.1986 H         1 <0>         0.1033
     24 H5          0.2314   -0.4677   -0.8255 H         1 <0>         0.1291
     25 H6          5.7198   -0.9138    2.5677 H         1 <0>         0.0736
     26 H7          4.6694   -1.2642    1.1709 H         1 <0>         0.0629
     27 H8          6.6376    0.1970    0.5853 H         1 <0>         0.0835
     28 H9          5.0687    0.9718    0.2556 H         1 <0>         0.0608
     29 H10         6.7554    1.3918    2.7652 H         1 <0>         0.0655
     30 H11         5.1054    3.1973    3.2246 H         1 <0>         0.0851
     31 H12         4.1820    2.7080    1.7830 H         1 <0>         0.0600
     32 H13         3.1653    1.6837    3.7508 H         1 <0>         0.0634
     33 H14         4.7379    1.0106    4.2519 H         1 <0>         0.0722
     34 H15         3.4804   -2.7071    4.2694 H         1 <0>         0.0974
     35 H16         3.7125   -1.0054    4.7370 H         1 <0>         0.0991
     36 H17         2.3361   -1.9275    5.3879 H         1 <0>         0.0886
     37 H18         0.5242   -3.8455    3.8178 H         1 <0>         0.1196
     38 H19         0.7079   -2.6611    5.1338 H         1 <0>         0.1209
     39 H20        -0.8015   -2.7183    4.1922 H         1 <0>         0.1005
     40 H21        -0.7587   -1.7811    2.0016 H         1 <0>         0.4452
@<TRIPOS>BOND
     1    1    2 1
     2    1   20 1
     3    1   21 1
     4    1   22 1
     5    2    3 1
     6    2   23 1
     7    2   24 1
     8    3    8 ar
     9    3    4 ar
    10    4    5 ar
    11    4   40 1
    12    5    6 ar
    13    5   19 1
    14    6    7 ar
    15    6   18 1
    16    7    8 ar
    17    7    9 1
    18    9   14 1
    19    9   10 1
    20   10   11 1
    21   10   25 1
    22   10   26 1
    23   11   12 1
    24   11   27 1
    25   11   28 1
    26   12   13 1
    27   12   15 1
    28   12   29 1
    29   13   14 1
    30   13   30 1
    31   13   31 1
    32   14   32 1
    33   14   33 1
    34   15   16 2
    35   15   17 1
    36   18   34 1
    37   18   35 1
    38   18   36 1
    39   19   37 1
    40   19   38 1
    41   19   39 1
@<TRIPOS>MOLECULE
ZINC50774818
   36    38     0     0     0
SMALL
USER_CHARGES

@<TRIPOS>ATOM
      1 C1          0.0561    1.5270   -0.0525 C.3       1 <0>        -0.1359
      2 C2         -0.2000    0.0384    0.1916 C.3       1 <0>         0.2068
      3 H1          0.0672   -0.5327   -0.6975 H         1 <0>         0.0876
      4 C3         -1.6737   -0.1848    0.5264 C.2       1 <0>        -0.1372
      5 C4         -2.7172    0.3697   -0.2130 C.2       1 <0>        -0.1419
      6 C5         -4.0002    0.1257    0.1394 C.2       1 <0>        -0.1741
      7 S1         -3.7955   -0.9254    1.5694 S.3       1 <0>         0.0384
      8 C6         -2.0224   -0.9574    1.5909 C.2       1 <0>        -0.1404
      9 C7         -1.1184   -1.6605    2.5505 C.3       1 <0>        -0.0584
     10 C8          0.2904   -1.7276    1.9410 C.3       1 <0>         0.0809
     11 N1          0.5966   -0.4222    1.3369 N.am      1 <0>        -0.5912
     12 C9          1.5929    0.3412    1.8277 C.2       1 <0>         0.5868
     13 O1          1.7695    1.4628    1.3935 O.2       1 <0>        -0.5223
     14 C10         2.4712   -0.1855    2.8942 C.ar      1 <0>        -0.0351
     15 C11         3.2165    0.6948    3.6888 C.ar      1 <0>        -0.0214
     16 C12         4.0233    0.1553    4.6739 C.ar      1 <0>        -0.1841
     17 C13         4.0456   -1.2333    4.8160 C.ar      1 <0>         0.3584
     18 N2          3.3048   -1.9929    4.0165 N.ar      1 <0>        -0.3087
     19 N3          2.5514   -1.4937    3.1049 N.ar      1 <0>        -0.1611
     20 N4          4.8392   -1.8182    5.7889 N.pl3     1 <0>        -0.7087
     21 C14         5.6560   -0.9796    6.6696 C.3       1 <0>         0.0858
     22 H2          1.0905    1.6713   -0.3643 H         1 <0>         0.0838
     23 H3         -0.6127    1.8873   -0.8341 H         1 <0>         0.0501
     24 H4         -0.1270    2.0827    0.8671 H         1 <0>         0.0669
     25 H5         -2.5014    0.9946   -1.0670 H         1 <0>         0.1341
     26 H6         -4.9113    0.4757   -0.3231 H         1 <0>         0.1874
     27 H7         -1.0842   -1.1102    3.4908 H         1 <0>         0.0835
     28 H8         -1.4883   -2.6702    2.7284 H         1 <0>         0.0947
     29 H9          1.0180   -1.9510    2.7213 H         1 <0>         0.1502
     30 H10         0.3228   -2.5023    1.1750 H         1 <0>         0.0805
     31 H11         3.1630    1.7627    3.5366 H         1 <0>         0.1611
     32 H12         4.6188    0.7894    5.3141 H         1 <0>         0.1547
     33 H13         4.8541   -2.7831    5.8870 H         1 <0>         0.4146
     34 H14         6.2077   -1.6124    7.3648 H         1 <0>         0.0880
     35 H15         6.3582   -0.3997    6.0706 H         1 <0>         0.0631
     36 H16         5.0099   -0.3028    7.2287 H         1 <0>         0.0630
@<TRIPOS>BOND
     1    1    2 1
     2    1   22 1
     3    1   23 1
     4    1   24 1
     5    2    3 1
     6    2   11 1
     7    2    4 1
     8    4    8 2
     9    4    5 1
    10    5    6 2
    11    5   25 1
    12    6    7 1
    13    6   26 1
    14    7    8 1
    15    8    9 1
    16    9   10 1
    17    9   27 1
    18    9   28 1
    19   10   11 1
    20   10   29 1
    21   10   30 1
    22   11   12 am
    23   12   13 2
    24   12   14 1
    25   14   19 ar
    26   14   15 ar
    27   15   16 ar
    28   15   31 1
    29   16   17 ar
    30   16   32 1
    31   17   18 ar
    32   17   20 1
    33   18   19 ar
    34   20   21 1
    35   20   33 1
    36   21   34 1
    37   21   35 1
    38   21   36 1
@<TRIPOS>MOLECULE
ZINC61595496
   36    37     0     0     0
SMALL
USER_CHARGES

@<TRIPOS>ATOM
      1 C1         -0.0187    1.5258    0.0104 C.3       1 <0>        -0.1692
      2 C2          0.0021   -0.0041    0.0020 C.3       1 <0>         0.1523
      3 C3          0.7182   -0.4975   -1.2568 C.3       1 <0>        -0.1696
      4 N1          0.7106   -0.4894    1.1889 N.am      1 <0>        -0.5290
      5 C4          1.9911   -0.2168    1.5099 C.2       1 <0>         0.6553
      6 O1          2.7625    0.4741    0.8682 O.2       1 <0>        -0.5449
      7 N2          2.2632   -0.8477    2.6709 N.am      1 <0>        -0.5438
      8 H1          3.1080   -0.8344    3.1473 H         1 <0>         0.4565
      9 N3          1.1004   -1.5256    3.0623 N.2       1 <0>        -0.2798
     10 C5          0.1807   -1.2968    2.1698 C.2       1 <0>         0.2591
     11 S1         -1.4668   -1.9204    2.2085 S.3       1 <0>         0.0149
     12 C6         -1.5297   -2.8993    3.7345 C.3       1 <0>        -0.0675
     13 H2         -1.2274   -2.2780    4.5774 H         1 <0>         0.1281
     14 C7         -0.5800   -4.0929    3.6142 C.3       1 <0>        -0.1226
     15 C8         -0.6330   -4.9185    4.9012 C.3       1 <0>        -0.1147
     16 C9         -2.0600   -5.4228    5.1252 C.3       1 <0>        -0.1297
     17 C10        -3.0097   -4.2293    5.2454 C.3       1 <0>        -0.1055
     18 C11        -2.9567   -3.4036    3.9584 C.3       1 <0>         0.0283
     19 H3         -3.6333   -2.5533    4.0441 H         1 <0>         0.1282
     20 C12        -3.3649   -4.2428    2.8200 C.1       1 <0>         0.1992
     21 N4         -3.6799   -4.8903    1.9414 N.1       1 <0>        -0.4085
     22 H4          1.0039    1.9031    0.0027 H         1 <0>         0.0766
     23 H5         -0.5459    1.8868   -0.8726 H         1 <0>         0.0814
     24 H6         -0.5289    1.8773    0.9072 H         1 <0>         0.0624
     25 H7         -1.0205   -0.3814    0.0098 H         1 <0>         0.1039
     26 H8          1.7408   -0.1202   -1.2645 H         1 <0>         0.0763
     27 H9          0.7330   -1.5874   -1.2628 H         1 <0>         0.0618
     28 H10         0.1910   -0.1364   -2.1398 H         1 <0>         0.0816
     29 H11        -0.8822   -4.7142    2.7712 H         1 <0>         0.0726
     30 H12         0.4367   -3.7336    3.4546 H         1 <0>         0.0866
     31 H13         0.0436   -5.7688    4.8156 H         1 <0>         0.0717
     32 H14        -0.3307   -4.2972    5.7442 H         1 <0>         0.0724
     33 H15        -2.3623   -6.0442    4.2822 H         1 <0>         0.0633
     34 H16        -2.0978   -6.0110    6.0421 H         1 <0>         0.0761
     35 H17        -4.0264   -4.5885    5.4050 H         1 <0>         0.0840
     36 H18        -2.7074   -3.6079    6.0884 H         1 <0>         0.0921
@<TRIPOS>BOND
     1    1    2 1
     2    1   22 1
     3    1   23 1
     4    1   24 1
     5    2    3 1
     6    2    4 1
     7    2   25 1
     8    3   26 1
     9    3   27 1
    10    3   28 1
    11    4   10 1
    12    4    5 am
    13    5    6 2
    14    5    7 am
    15    7    8 1
    16    7    9 1
    17    9   10 2
    18   10   11 1
    19   11   12 1
    20   12   13 1
    21   12   18 1
    22   12   14 1
    23   14   15 1
    24   14   29 1
    25   14   30 1
    26   15   16 1
    27   15   31 1
    28   15   32 1
    29   16   17 1
    30   16   33 1
    31   16   34 1
    32   17   18 1
    33   17   35 1
    34   17   36 1
    35   18   19 1
    36   18   20 1
    37   20   21 3
@<TRIPOS>MOLECULE
ZINC08879962
   52    54     0     0     0
SMALL
USER_CHARGES
N-(10-cyano-8-thiabicyclo[5.3.0]deca-9,11-dien-9-yl)-2-[methyl-[(5-methyl-2-furyl)methyl]amino]-propanamide
@<TRIPOS>ATOM
      1 C1          1.7170   -1.8750   -0.0240 C.3       1 <0>        -0.0914
      2 C2          1.2742   -0.4346   -0.0124 C.2       1 <0>         0.0510
      3 C3          2.0859    0.6380   -0.0144 C.2       1 <0>        -0.2229
      4 C4          1.2541    1.7812   -0.0004 C.2       1 <0>        -0.1287
      5 C5         -0.0161    1.3388    0.0094 C.2       1 <0>        -0.1196
      6 O1          0.0021   -0.0041    0.0020 O.3       1 <0>        -0.1676
      7 C6         -1.2504    2.2034    0.0202 C.3       1 <0>         0.0968
      8 C7         -0.6569    3.3209   -2.0442 C.3       1 <0>        -0.0614
      9 C8         -2.9821    3.1278   -1.3973 C.3       1 <0>         0.0168
     10 H1         -3.6808    2.5477   -0.7944 H         1 <0>         0.1715
     11 C9         -2.8808    4.5475   -0.8358 C.3       1 <0>        -0.1845
     12 C10        -3.4737    3.1844   -2.8207 C.2       1 <0>         0.5019
     13 O2         -2.7889    2.7385   -3.7170 O.2       1 <0>        -0.4887
     14 N1         -4.6743    3.7306   -3.0978 N.am      1 <0>        -0.5935
     15 C11        -5.1270    3.7828   -4.4089 C.2       1 <0>         0.0459
     16 C12        -6.3195    4.2992   -4.8880 C.2       1 <0>        -0.0889
     17 C13        -6.5586    4.2349   -6.3230 C.2       1 <0>        -0.0628
     18 C14        -5.5705    3.6566   -7.0394 C.2       1 <0>        -0.1744
     19 S1         -4.3349    3.2247   -5.8444 S.3       1 <0>         0.2559
     20 C15        -5.5234    3.4288   -8.5180 C.3       1 <0>        -0.0457
     21 C16        -5.8939    4.7305   -9.2415 C.3       1 <0>        -0.1155
     22 C17        -7.4061    4.7595   -9.4408 C.3       1 <0>        -0.1255
     23 C18        -8.1035    4.0606   -8.2754 C.3       1 <0>        -0.1262
     24 C19        -7.8214    4.7925   -6.9679 C.3       1 <0>        -0.0624
     25 C20        -7.2846    4.8775   -4.0021 C.1       1 <0>         0.2529
     26 N2         -8.0502    5.3362   -3.2993 N.1       1 <0>        -0.4010
     27 H2          0.8415   -2.5243   -0.0192 H         1 <0>         0.0843
     28 H3          2.3067   -2.0667   -0.9204 H         1 <0>         0.0996
     29 H4          2.3231   -2.0758    0.8594 H         1 <0>         0.1000
     30 H5          3.1658    0.6279   -0.0253 H         1 <0>         0.1636
     31 H6          1.5768    2.8119    0.0021 H         1 <0>         0.1616
     32 H7         -2.0559    1.6803    0.5356 H         1 <0>         0.1453
     33 H8         -1.0347    3.1382    0.5377 H         1 <0>         0.1596
     34 H9          0.2977    2.7950   -2.0642 H         1 <0>         0.1278
     35 H10        -0.9840    3.5191   -3.0649 H         1 <0>         0.1373
     36 H11        -0.5409    4.2640   -1.5102 H         1 <0>         0.1272
     37 H12        -2.1822    5.1276   -1.4387 H         1 <0>         0.0966
     38 H13        -3.8629    5.0197   -0.8626 H         1 <0>         0.1113
     39 H14        -2.5253    4.5065    0.1937 H         1 <0>         0.1043
     40 H15        -5.2219    4.0872   -2.3811 H         1 <0>         0.4277
     41 H16        -6.2331    2.6471   -8.7888 H         1 <0>         0.0987
     42 H17        -4.5176    3.1249   -8.8077 H         1 <0>         0.0805
     43 H18        -5.3961    4.7654  -10.2105 H         1 <0>         0.0766
     44 H19        -5.5876    5.5849   -8.6380 H         1 <0>         0.0683
     45 H20        -7.6578    4.2498  -10.3707 H         1 <0>         0.0696
     46 H21        -7.7417    5.7952   -9.4941 H         1 <0>         0.0674
     47 H22        -7.7390    3.0362   -8.2001 H         1 <0>         0.0748
     48 H23        -9.1785    4.0471   -8.4554 H         1 <0>         0.0721
     49 H24        -8.6638    4.6590   -6.2892 H         1 <0>         0.0733
     50 H25        -7.6853    5.8547   -7.1713 H         1 <0>         0.0852
     51 N3         -1.6605    2.4664   -1.3753 N.4       1 <0>        -0.3845
     52 H26        -1.7260    1.5733   -1.8776 H         1 <0>         0.4397
@<TRIPOS>BOND
     1    1    2 1
     2    1   27 1
     3    1   28 1
     4    1   29 1
     5    2    6 1
     6    2    3 2
     7    3    4 1
     8    3   30 1
     9    4    5 2
    10    4   31 1
    11    5    6 1
    12    5    7 1
    13    7   32 1
    14    7   33 1
    15    7   51 1
    16    8   34 1
    17    8   35 1
    18    8   36 1
    19    8   51 1
    20    9   10 1
    21    9   11 1
    22    9   12 1
    23    9   51 1
    24   11   37 1
    25   11   38 1
    26   11   39 1
    27   12   13 2
    28   12   14 am
    29   14   15 1
    30   14   40 1
    31   15   19 1
    32   15   16 2
    33   16   17 1
    34   16   25 1
    35   17   24 1
    36   17   18 2
    37   18   19 1
    38   18   20 1
    39   20   21 1
    40   20   41 1
    41   20   42 1
    42   21   22 1
    43   21   43 1
    44   21   44 1
    45   22   23 1
    46   22   45 1
    47   22   46 1
    48   23   24 1
    49   23   47 1
    50   23   48 1
    51   24   49 1
    52   24   50 1
    53   25   26 3
    54   51   52 1
@<TRIPOS>MOLECULE
ZINC36704567
   56    57     0     0     0
SMALL
USER_CHARGES

@<TRIPOS>ATOM
      1 C1         -0.0184    1.5028    0.0103 C.3       1 <0>        -0.1054
      2 C2          0.0021   -0.0041    0.0020 C.2       1 <0>         0.1429
      3 C3          0.0086   -0.8150   -1.1151 C.2       1 <0>        -0.2297
      4 C4          0.0291   -2.1523   -0.6597 C.2       1 <0>         0.0403
      5 N1          0.0344   -2.1344    0.6447 N.2       1 <0>        -0.2338
      6 N2          0.0232   -0.8045    1.0797 N.pl3     1 <0>        -0.3536
      7 C5          0.0299   -0.3604    2.4758 C.3       1 <0>         0.1499
      8 H1          0.0151    0.7289    2.5113 H         1 <0>         0.1298
      9 C6         -1.2049   -0.9123    3.1940 C.3       1 <0>        -0.1496
     10 C7         -1.1480   -0.5082    4.6700 C.3       1 <0>        -0.1391
     11 C8          0.1569   -1.0204    5.2835 C.3       1 <0>        -0.0183
     12 N3          1.2993   -0.4366    4.5704 N.4       1 <0>        -0.3772
     13 C9          1.2917   -0.8772    3.1703 C.3       1 <0>        -0.0263
     14 C10         2.5481   -0.8695    5.2116 C.3       1 <0>         0.0239
     15 C11         3.7399   -0.2617    4.4693 C.3       1 <0>        -0.1867
     16 C12         2.5621   -0.4019    6.6683 C.3       1 <0>        -0.1834
     17 C13         0.0425   -3.3836   -1.5285 C.3       1 <0>         0.5513
     18 F1          1.3655   -3.7463   -1.8029 F         1 <0>        -0.1579
     19 F2         -0.5996   -4.4322   -0.8612 F         1 <0>        -0.1612
     20 F3         -0.6259   -3.1153   -2.7278 F         1 <0>        -0.1554
     21 C14        -0.0040   -0.3691   -2.5203 C.2       1 <0>         0.5894
     22 O1          1.0438   -0.1703   -3.1045 O.2       1 <0>        -0.5102
     23 N4         -1.1769   -0.1819   -3.1574 N.am      1 <0>        -0.7069
     24 C15        -1.1894    0.2612   -4.5537 C.3       1 <0>         0.1685
     25 C16        -0.4574   -0.7649   -5.4210 C.3       1 <0>        -0.1670
     26 C17        -2.6361    0.3950   -5.0334 C.3       1 <0>        -0.1574
     27 C18        -0.4878    1.6163   -4.6651 C.3       1 <0>        -0.1649
     28 H2          1.0042    1.8801    0.0026 H         1 <0>         0.0993
     29 H3         -0.5455    1.8639   -0.8728 H         1 <0>         0.1015
     30 H4         -0.5286    1.8543    0.9071 H         1 <0>         0.0825
     31 H5         -2.1057   -0.5015    2.7380 H         1 <0>         0.1042
     32 H6         -1.2177   -1.9993    3.1139 H         1 <0>         0.1014
     33 H7         -1.1869    0.5780    4.7517 H         1 <0>         0.0936
     34 H8         -1.9950   -0.9443    5.1997 H         1 <0>         0.1252
     35 H9          0.2006   -0.7346    6.3344 H         1 <0>         0.1417
     36 H10         0.1946   -2.1067    5.2014 H         1 <0>         0.1340
     37 H11         1.3061   -1.9665    3.1333 H         1 <0>         0.1456
     38 H12         2.1724   -0.4856    2.6611 H         1 <0>         0.1417
     39 H13         2.6156   -1.9569    5.1784 H         1 <0>         0.1391
     40 H14         3.6724    0.8258    4.5026 H         1 <0>         0.0829
     41 H15         4.6665   -0.5829    4.9451 H         1 <0>         0.1097
     42 H16         3.7299   -0.5948    3.4315 H         1 <0>         0.0806
     43 H17         1.7130   -0.8350    7.1971 H         1 <0>         0.0836
     44 H18         3.4887   -0.7232    7.1441 H         1 <0>         0.1087
     45 H19         2.4946    0.6855    6.7016 H         1 <0>         0.0826
     46 H20        -2.0127   -0.3405   -2.6913 H         1 <0>         0.4004
     47 H21        -0.9572   -1.7303   -5.3416 H         1 <0>         0.0577
     48 H22        -0.4667   -0.4353   -6.4599 H         1 <0>         0.0681
     49 H23         0.5733   -0.8602   -5.0793 H         1 <0>         0.0772
     50 H24        -3.1576    1.1260   -4.4155 H         1 <0>         0.0624
     51 H25        -2.6454    0.7246   -6.0723 H         1 <0>         0.0789
     52 H26        -3.1359   -0.5704   -4.9540 H         1 <0>         0.0644
     53 H27         0.5429    1.5210   -4.3234 H         1 <0>         0.0772
     54 H28        -0.4971    1.9459   -5.7040 H         1 <0>         0.0690
     55 H29        -1.0093    2.3473   -4.0473 H         1 <0>         0.0541
     56 H30         1.2373    0.5699    4.6049 H         1 <0>         0.4209
@<TRIPOS>BOND
     1    1    2 1
     2    1   28 1
     3    1   29 1
     4    1   30 1
     5    2    6 1
     6    2    3 2
     7    3    4 1
     8    3   21 1
     9    4    5 2
    10    4   17 1
    11    5    6 1
    12    6    7 1
    13    7    8 1
    14    7   13 1
    15    7    9 1
    16    9   10 1
    17    9   31 1
    18    9   32 1
    19   10   11 1
    20   10   33 1
    21   10   34 1
    22   11   12 1
    23   11   35 1
    24   11   36 1
    25   12   13 1
    26   12   14 1
    27   12   56 1
    28   13   37 1
    29   13   38 1
    30   14   15 1
    31   14   16 1
    32   14   39 1
    33   15   40 1
    34   15   41 1
    35   15   42 1
    36   16   43 1
    37   16   44 1
    38   16   45 1
    39   17   18 1
    40   17   19 1
    41   17   20 1
    42   21   22 2
    43   21   23 am
    44   23   24 1
    45   23   46 1
    46   24   25 1
    47   24   26 1
    48   24   27 1
    49   25   47 1
    50   25   48 1
    51   25   49 1
    52   26   50 1
    53   26   51 1
    54   26   52 1
    55   27   53 1
    56   27   54 1
    57   27   55 1
@<TRIPOS>MOLECULE
ZINC45820272
   55    58     0     0     0
SMALL
USER_CHARGES

@<TRIPOS>ATOM
      1 C1          0.5465    1.6549    0.4124 C.3       1 <0>        -0.1543
      2 C2          0.4149    0.1321    0.3439 C.3       1 <0>        -0.1040
      3 C3          0.9469   -0.3679   -1.0022 C.3       1 <0>        -0.1423
      4 C4          0.8861   -1.8965   -1.0326 C.3       1 <0>        -0.0150
      5 N1          1.7074   -2.4442    0.0537 N.4       1 <0>        -0.3794
      6 C5          1.1603   -2.0274    1.3504 C.3       1 <0>        -0.0090
      7 C6          1.2317   -0.5038    1.4725 C.3       1 <0>        -0.1412
      8 C7          1.7085   -3.9110   -0.0270 C.3       1 <0>         0.1225
      9 H1          0.6828   -4.2778    0.0113 H         1 <0>         0.1596
     10 C8          2.3580   -4.3489   -1.3413 C.3       1 <0>         0.1042
     11 N2          2.2902   -5.8078   -1.4572 N.am      1 <0>        -0.7229
     12 C9          2.8950   -6.4307   -2.4879 C.2       1 <0>         0.5305
     13 O1          3.4955   -5.7836   -3.3196 O.2       1 <0>        -0.4868
     14 C10         2.8252   -7.9314   -2.6072 C.3       1 <0>         0.0889
     15 H2          3.1919   -8.3865   -1.6871 H         1 <0>         0.1085
     16 C11         1.3758   -8.3572   -2.8441 C.3       1 <0>        -0.1093
     17 C12         1.3142   -9.8183   -3.2038 C.ar      1 <0>        -0.0481
     18 C13         0.1386  -10.5228   -3.0404 C.ar      1 <0>        -0.1232
     19 C14         0.0817  -11.8644   -3.3737 C.ar      1 <0>        -0.0755
     20 C15         1.1982  -12.5117   -3.8731 C.ar      1 <0>        -0.1241
     21 C16         2.3810  -11.8200   -4.0416 C.ar      1 <0>        -0.0438
     22 C17         2.4427  -10.4692   -3.7050 C.ar      1 <0>        -0.1755
     23 C18         3.7029   -9.7081   -3.8689 C.2       1 <0>         0.5290
     24 O2          4.7499  -10.2638   -4.1339 O.2       1 <0>        -0.4264
     25 O3          3.6354   -8.3616   -3.7093 O.3       1 <0>        -0.3306
     26 C19         2.4881   -4.4772    1.1317 C.2       1 <0>        -0.2630
     27 C20         2.2197   -5.5691    1.8889 C.2       1 <0>        -0.0763
     28 C21         3.0864   -5.9048    2.9120 C.2       1 <0>        -0.1731
     29 C22         4.1791   -5.1323    3.1279 C.2       1 <0>        -0.1099
     30 S1          4.0088   -3.8886    1.8584 S.3       1 <0>         0.0661
     31 H3          1.5945    1.9342    0.3036 H         1 <0>         0.0625
     32 H4         -0.0352    2.1064   -0.3912 H         1 <0>         0.0681
     33 H5          0.1741    2.0089    1.3737 H         1 <0>         0.0678
     34 H6         -0.6331   -0.1483    0.4498 H         1 <0>         0.0899
     35 H7          0.3351    0.0369   -1.8084 H         1 <0>         0.1166
     36 H8          1.9793   -0.0421   -1.1292 H         1 <0>         0.0904
     37 H9         -0.1467   -2.2212   -0.9058 H         1 <0>         0.1350
     38 H10         1.2640   -2.2558   -1.9898 H         1 <0>         0.1355
     39 H11         0.1217   -2.3493    1.4264 H         1 <0>         0.1320
     40 H12         1.7406   -2.4834    2.1526 H         1 <0>         0.1317
     41 H13         2.2700   -0.1809    1.3969 H         1 <0>         0.0895
     42 H14         0.8234   -0.1963    2.4352 H         1 <0>         0.1149
     43 H15         1.8285   -3.8930   -2.1778 H         1 <0>         0.1000
     44 H16         3.4007   -4.0315   -1.3548 H         1 <0>         0.0978
     45 H17         1.8099   -6.3253   -0.7920 H         1 <0>         0.4078
     46 H18         0.7957   -8.1838   -1.9377 H         1 <0>         0.1052
     47 H19         0.9546   -7.7670   -3.6580 H         1 <0>         0.1054
     48 H20        -0.7381  -10.0263   -2.6513 H         1 <0>         0.1347
     49 H21        -0.8408  -12.4105   -3.2429 H         1 <0>         0.1362
     50 H22         1.1442  -13.5589   -4.1316 H         1 <0>         0.1393
     51 H23         3.2534  -12.3228   -4.4321 H         1 <0>         0.1430
     52 H24         1.3417   -6.1675    1.6958 H         1 <0>         0.1446
     53 H25         2.8957   -6.7695    3.5303 H         1 <0>         0.1529
     54 H26         4.9538   -5.2428    3.8722 H         1 <0>         0.2014
     55 H27         2.6529   -2.1037   -0.0364 H         1 <0>         0.4222
@<TRIPOS>BOND
     1    1    2 1
     2    1   31 1
     3    1   32 1
     4    1   33 1
     5    2    7 1
     6    2    3 1
     7    2   34 1
     8    3    4 1
     9    3   35 1
    10    3   36 1
    11    4    5 1
    12    4   37 1
    13    4   38 1
    14    5    6 1
    15    5    8 1
    16    5   55 1
    17    6    7 1
    18    6   39 1
    19    6   40 1
    20    7   41 1
    21    7   42 1
    22    8    9 1
    23    8   10 1
    24    8   26 1
    25   10   11 1
    26   10   43 1
    27   10   44 1
    28   11   12 am
    29   11   45 1
    30   12   13 2
    31   12   14 1
    32   14   15 1
    33   14   25 1
    34   14   16 1
    35   16   17 1
    36   16   46 1
    37   16   47 1
    38   17   22 ar
    39   17   18 ar
    40   18   19 ar
    41   18   48 1
    42   19   20 ar
    43   19   49 1
    44   20   21 ar
    45   20   50 1
    46   21   22 ar
    47   21   51 1
    48   22   23 1
    49   23   24 2
    50   23   25 1
    51   26   30 1
    52   26   27 2
    53   27   28 1
    54   27   52 1
    55   28   29 2
    56   28   53 1
    57   29   30 1
    58   29   54 1
@<TRIPOS>MOLECULE
ZINC63303134
   47    50     0     0     0
SMALL
USER_CHARGES

@<TRIPOS>ATOM
      1 C1         -0.0184    1.5028    0.0103 C.3       1 <0>        -0.0956
      2 C2          0.0021   -0.0041    0.0020 C.2       1 <0>         0.2047
      3 C3          0.0061   -0.7293   -1.1812 C.2       1 <0>        -0.3206
      4 S1          0.0318   -2.3971   -0.5434 S.3       1 <0>         0.1712
      5 C4          0.0348   -2.0197    1.0967 C.2       1 <0>         0.3030
      6 N1          0.0225   -0.7002    1.1105 N.2       1 <0>        -0.5469
      7 N2          0.0516   -2.8903    2.1787 N.pl3     1 <0>        -0.3702
      8 C5          0.0751   -4.2556    2.1041 C.2       1 <0>        -0.0295
      9 C6          0.0855   -4.7453    3.3596 C.2       1 <0>        -0.1499
     10 C7          0.0678   -3.6467    4.2438 C.2       1 <0>        -0.1753
     11 C8          0.0531   -2.5252    3.4967 C.2       1 <0>         0.0174
     12 C9         -0.0076   -0.2580   -2.5672 C.2       1 <0>         0.6238
     13 O1         -0.0254    0.9359   -2.8040 O.2       1 <0>        -0.5066
     14 N3         -0.0005   -1.1460   -3.5811 N.am      1 <0>        -0.7355
     15 C10        -0.0141   -0.6744   -4.9680 C.3       1 <0>         0.1517
     16 H1          0.5622    0.2477   -5.0439 H         1 <0>         0.1044
     17 C11        -1.4572   -0.4111   -5.4030 C.3       1 <0>        -0.1700
     18 C12         0.6057   -1.7394   -5.8750 C.3       1 <0>        -0.1036
     19 C13         2.0618   -1.9105   -5.5264 C.2       1 <0>         0.0702
     20 C14         2.5956   -2.8331   -4.6938 C.ar      1 <0>        -0.1724
     21 C15         2.0031   -3.9115   -3.8935 C.ar      1 <0>        -0.0220
     22 C16         2.8125   -4.6894   -3.1394 C.ar      1 <0>        -0.1454
     23 C17         4.1997   -4.4920   -3.1028 C.ar      1 <0>         0.0510
     24 C18         4.8172   -3.5223   -3.8103 C.ar      1 <0>        -0.2061
     25 C19         4.0630   -2.6456   -4.6382 C.ar      1 <0>         0.3282
     26 N4          4.4224   -1.6460   -5.4064 N.pl3     1 <0>        -0.5844
     27 C20         3.2227   -1.0895   -6.0417 C.3       1 <0>         0.0599
     28 H2          1.0042    1.8801    0.0026 H         1 <0>         0.0884
     29 H3         -0.5455    1.8639   -0.8728 H         1 <0>         0.1014
     30 H4         -0.5286    1.8543    0.9071 H         1 <0>         0.0841
     31 H5          0.0834   -4.8403    1.1961 H         1 <0>         0.1729
     32 H6          0.1037   -5.7887    3.6379 H         1 <0>         0.1569
     33 H7          0.0697   -3.6953    5.3227 H         1 <0>         0.1562
     34 H8          0.0416   -1.5131    3.8736 H         1 <0>         0.1770
     35 H9          0.0137   -2.0974   -3.3924 H         1 <0>         0.3952
     36 H10        -2.0335   -1.3332   -5.3271 H         1 <0>         0.0674
     37 H11        -1.8987    0.3476   -4.7569 H         1 <0>         0.0773
     38 H12        -1.4673   -0.0602   -6.4349 H         1 <0>         0.0788
     39 H13         0.0843   -2.6860   -5.7326 H         1 <0>         0.1161
     40 H14         0.5154   -1.4277   -6.9155 H         1 <0>         0.1332
     41 H15         0.9365   -4.0809   -3.9063 H         1 <0>         0.1560
     42 H16         2.3786   -5.4834   -2.5497 H         1 <0>         0.1587
     43 H17         4.7991   -5.1421   -2.4827 H         1 <0>         0.1613
     44 H18         5.8896   -3.4115   -3.7472 H         1 <0>         0.1607
     45 H19         3.2936   -1.1781   -7.1258 H         1 <0>         0.1767
     46 H20         3.0996   -0.0446   -5.7568 H         1 <0>         0.1741
     47 H21         5.3301   -1.3296   -5.5362 H         1 <0>         0.4561
@<TRIPOS>BOND
     1    1    2 1
     2    1   28 1
     3    1   29 1
     4    1   30 1
     5    2    6 1
     6    2    3 2
     7    3    4 1
     8    3   12 1
     9    4    5 1
    10    5    6 2
    11    5    7 1
    12    7   11 1
    13    7    8 1
    14    8    9 2
    15    8   31 1
    16    9   10 1
    17    9   32 1
    18   10   11 2
    19   10   33 1
    20   11   34 1
    21   12   13 2
    22   12   14 am
    23   14   15 1
    24   14   35 1
    25   15   16 1
    26   15   17 1
    27   15   18 1
    28   17   36 1
    29   17   37 1
    30   17   38 1
    31   18   19 1
    32   18   39 1
    33   18   40 1
    34   19   27 1
    35   19   20 2
    36   20   25 ar
    37   20   21 ar
    38   21   22 ar
    39   21   41 1
    40   22   23 ar
    41   22   42 1
    42   23   24 ar
    43   23   43 1
    44   24   25 ar
    45   24   44 1
    46   25   26 2
    47   26   27 1
    48   26   47 1
    49   27   45 1
    50   27   46 1
@<TRIPOS>MOLECULE
ZINC65967548
   57    61     0     0     0
SMALL
USER_CHARGES

@<TRIPOS>ATOM
      1 C1         -0.0184    1.5028    0.0103 C.3       1 <0>        -0.1228
      2 C2          0.0021   -0.0041    0.0020 C.ar      1 <0>        -0.0665
      3 C3          0.0057   -0.6887   -1.1989 C.ar      1 <0>        -0.1222
      4 C4          0.0245   -2.0709   -1.2065 C.ar      1 <0>        -0.0916
      5 C5          0.0400   -2.7685   -0.0132 C.ar      1 <0>        -0.1301
      6 C6          0.0373   -2.0839    1.1877 C.ar      1 <0>        -0.0921
      7 C7          0.0229   -0.7016    1.1953 C.ar      1 <0>        -0.1227
      8 C8          0.0595   -4.2753   -0.0215 C.3       1 <0>         0.1622
      9 N1          1.4468   -4.7457   -0.0317 N.am      1 <0>        -0.6872
     10 C9          1.7102   -6.0675   -0.0404 C.2       1 <0>         0.6015
     11 O1          0.7961   -6.8696   -0.0397 O.2       1 <0>        -0.5004
     12 C10         3.1053   -6.5405   -0.0507 C.2       1 <0>         0.0098
     13 N2          4.2410   -5.8483   -0.0473 N.2       1 <0>        -0.2100
     14 N3          5.3365   -6.4782   -0.0578 N.2       1 <0>        -0.2451
     15 C11         5.3855   -7.7954   -0.0720 C.2       1 <0>        -0.1093
     16 S1          3.7508   -8.2072   -0.0633 S.3       1 <0>         0.2715
     17 C12         6.5911   -8.6994   -0.0862 C.3       1 <0>         0.0968
     18 N4          6.9879   -9.0083    1.2941 N.4       1 <0>        -0.3568
     19 C13         7.2620   -7.7722    1.9646 C.3       1 <0>        -0.0068
     20 C14         8.1444   -7.8724    3.1699 C.3       1 <0>        -0.1042
     21 C15         7.8501   -9.0524    4.0709 C.3       1 <0>        -0.1160
     22 C16         8.5589  -10.3319    3.6623 C.3       1 <0>        -0.0982
     23 C17        10.0492  -10.0798    3.4219 C.3       1 <0>        -0.1142
     24 C18        10.1795   -9.0142    2.3325 C.3       1 <0>        -0.0921
     25 C19         9.6175   -7.6977    2.8783 C.3       1 <0>        -0.1148
     26 C20         9.4477   -9.4141    1.0690 C.3       1 <0>        -0.1183
     27 C21         8.0633   -9.9635    1.2460 C.3       1 <0>         0.0258
     28 C22         7.9570  -10.9498    2.4050 C.3       1 <0>        -0.1296
     29 H1          1.0042    1.8801    0.0026 H         1 <0>         0.0751
     30 H2         -0.5455    1.8639   -0.8728 H         1 <0>         0.0708
     31 H3         -0.5286    1.8543    0.9071 H         1 <0>         0.0705
     32 H4         -0.0064   -0.1436   -2.1312 H         1 <0>         0.1274
     33 H5          0.0266   -2.6057   -2.1448 H         1 <0>         0.1254
     34 H6          0.0491   -2.6289    2.1200 H         1 <0>         0.1248
     35 H7          0.0245   -0.1667    2.1335 H         1 <0>         0.1270
     36 H8         -0.4447   -4.6501    0.8693 H         1 <0>         0.0891
     37 H9         -0.4546   -4.6404   -0.9106 H         1 <0>         0.0894
     38 H10         2.1759   -4.1059   -0.0323 H         1 <0>         0.4153
     39 H11         6.3460   -9.6237   -0.6093 H         1 <0>         0.1622
     40 H12         7.4139   -8.1998   -0.5975 H         1 <0>         0.1659
     41 H13         7.7323   -7.0943    1.2523 H         1 <0>         0.1338
     42 H14         6.3130   -7.3325    2.2716 H         1 <0>         0.1185
     43 H15         7.8814   -7.0050    3.7753 H         1 <0>         0.0980
     44 H16         8.1516   -8.7975    5.0869 H         1 <0>         0.0900
     45 H17         6.7753   -9.2338    4.0659 H         1 <0>         0.0643
     46 H18         8.4677  -11.0511    4.4763 H         1 <0>         0.0908
     47 H19        10.5159   -9.7258    4.3411 H         1 <0>         0.0793
     48 H20        10.5306  -11.0015    3.0950 H         1 <0>         0.0763
     49 H21        11.2342   -8.8778    2.0939 H         1 <0>         0.0921
     50 H22         9.7515   -6.9093    2.1377 H         1 <0>         0.0760
     51 H23        10.1416   -7.4303    3.7959 H         1 <0>         0.0879
     52 H24         9.3837   -8.5379    0.4237 H         1 <0>         0.0810
     53 H25        10.0466  -10.1658    0.5549 H         1 <0>         0.1080
     54 H26         7.8741  -10.5677    0.3588 H         1 <0>         0.1253
     55 H27         8.4975  -11.8627    2.1551 H         1 <0>         0.1159
     56 H28         6.9083  -11.1874    2.5840 H         1 <0>         0.0849
     57 H29         6.2021   -9.4448    1.7526 H         1 <0>         0.4186
@<TRIPOS>BOND
     1    1    2 1
     2    1   29 1
     3    1   30 1
     4    1   31 1
     5    2    7 ar
     6    2    3 ar
     7    3    4 ar
     8    3   32 1
     9    4    5 ar
    10    4   33 1
    11    5    6 ar
    12    5    8 1
    13    6    7 ar
    14    6   34 1
    15    7   35 1
    16    8    9 1
    17    8   36 1
    18    8   37 1
    19    9   10 am
    20    9   38 1
    21   10   11 2
    22   10   12 1
    23   12   16 1
    24   12   13 2
    25   13   14 1
    26   14   15 2
    27   15   16 1
    28   15   17 1
    29   17   18 1
    30   17   39 1
    31   17   40 1
    32   18   27 1
    33   18   19 1
    34   18   57 1
    35   19   20 1
    36   19   41 1
    37   19   42 1
    38   20   25 1
    39   20   21 1
    40   20   43 1
    41   21   22 1
    42   21   44 1
    43   21   45 1
    44   22   28 1
    45   22   23 1
    46   22   46 1
    47   23   24 1
    48   23   47 1
    49   23   48 1
    50   24   25 1
    51   24   26 1
    52   24   49 1
    53   25   50 1
    54   25   51 1
    55   26   27 1
    56   26   52 1
    57   26   53 1
    58   27   28 1
    59   27   54 1
    60   28   55 1
    61   28   56 1
@<TRIPOS>MOLECULE
ZINC12653156
   39    41     0     0     0
SMALL
USER_CHARGES
N-[4-(1,1-dioxo-1,2-thiazolidin-2-yl)phenyl]-3,4-difluoro-benzenesulfonamide
@<TRIPOS>ATOM
      1 C1          2.0338    0.1491    1.1195 C.ar      1 <0>        -0.0674
      2 C2          2.8275   -0.4399    2.0839 C.ar      1 <0>        -0.1658
      3 C3          2.4413   -1.6422    2.6615 C.ar      1 <0>         0.2287
      4 C4          1.2545   -2.2495    2.2732 C.ar      1 <0>        -0.1452
      5 C5          0.4582   -1.6578    1.3126 C.ar      1 <0>        -0.0646
      6 C6          0.8441   -0.4553    0.7353 C.ar      1 <0>         0.0864
      7 N1          0.0365    0.1449   -0.2382 N.pl3     1 <0>        -1.0563
      8 S1         -1.3590    0.9182    0.2054 S.o2      1 <0>         2.6940
      9 O1         -1.9170    1.4625   -0.9827 O.2       1 <0>        -0.9448
     10 O2         -2.0745    0.0179    1.0401 O.2       1 <0>        -0.9387
     11 C7         -0.8981    2.2849    1.2175 C.ar      1 <0>        -0.6664
     12 C8         -0.9031    2.1575    2.5941 C.ar      1 <0>         0.0049
     13 C9         -0.5365    3.2264    3.3899 C.ar      1 <0>        -0.1444
     14 C10        -0.1748    4.4296    2.8091 C.ar      1 <0>         0.1288
     15 C11        -0.1752    4.5591    1.4287 C.ar      1 <0>         0.0497
     16 C12        -0.5374    3.4850    0.6344 C.ar      1 <0>        -0.0235
     17 F1          0.1779    5.7324    0.8595 F         1 <0>        -0.1198
     18 F2          0.1788    5.4765    3.5864 F         1 <0>        -0.1154
     19 N2          3.2484   -2.2418    3.6357 N.pl3     1 <0>        -0.9327
     20 C13         2.8185   -3.1704    4.6968 C.3       1 <0>         0.0612
     21 C14         3.9612   -4.1371    5.0709 C.3       1 <0>        -0.1306
     22 C15         5.2234   -3.2330    5.2067 C.3       1 <0>        -0.5871
     23 S2          4.9006   -2.0454    3.8394 S.o2      1 <0>         2.5516
     24 O3          5.4890   -2.5000    2.6284 O.2       1 <0>        -0.9394
     25 O4          5.0717   -0.7068    4.2844 O.2       1 <0>        -0.9426
     26 H1          2.3361    1.0821    0.6673 H         1 <0>         0.1376
     27 H2          3.7506    0.0324    2.3858 H         1 <0>         0.1337
     28 H3          0.9540   -3.1843    2.7228 H         1 <0>         0.1370
     29 H4         -0.4649   -2.1301    1.0106 H         1 <0>         0.1438
     30 H5          0.2944    0.1077   -1.1725 H         1 <0>         0.4282
     31 H6         -1.1895    1.2203    3.0480 H         1 <0>         0.1605
     32 H7         -0.5366    3.1243    4.4651 H         1 <0>         0.1593
     33 H8         -0.5385    3.5848   -0.4410 H         1 <0>         0.1637
     34 H9          2.5260   -2.5983    5.5772 H         1 <0>         0.0915
     35 H10         1.9627   -3.7462    4.3444 H         1 <0>         0.1057
     36 H11         4.1085   -4.8773    4.2844 H         1 <0>         0.1004
     37 H12         3.7450   -4.6303    6.0186 H         1 <0>         0.1209
     38 H13         6.1382   -3.7995    5.0330 H         1 <0>         0.1492
     39 H14         5.2488   -2.7289    6.1728 H         1 <0>         0.1482
@<TRIPOS>BOND
     1    1    6 ar
     2    1    2 ar
     3    1   26 1
     4    2    3 ar
     5    2   27 1
     6    3    4 ar
     7    3   19 1
     8    4    5 ar
     9    4   28 1
    10    5    6 ar
    11    5   29 1
    12    6    7 1
    13    7    8 1
    14    7   30 1
    15    8    9 2
    16    8   10 2
    17    8   11 1
    18   11   16 ar
    19   11   12 ar
    20   12   13 ar
    21   12   31 1
    22   13   14 ar
    23   13   32 1
    24   14   15 ar
    25   14   18 1
    26   15   16 ar
    27   15   17 1
    28   16   33 1
    29   19   23 1
    30   19   20 1
    31   20   21 1
    32   20   34 1
    33   20   35 1
    34   21   22 1
    35   21   36 1
    36   21   37 1
    37   22   23 1
    38   22   38 1
    39   22   39 1
    40   23   24 2
    41   23   25 2
@<TRIPOS>MOLECULE
ZINC36876143
   50    52     0     0     0
SMALL
USER_CHARGES

@<TRIPOS>ATOM
      1 C1         -0.0187    1.5258    0.0104 C.3       1 <0>        -0.1589
      2 C2          0.0021   -0.0041    0.0020 C.3       1 <0>        -0.1174
      3 C3         -1.4333   -0.5336    0.0129 C.3       1 <0>         0.1717
      4 C4         -2.2051    0.0415    1.1839 C.2       1 <0>         0.5447
      5 O1         -1.9585   -0.0978    2.3627 O.2       1 <0>        -0.4521
      6 N1         -3.2220    0.7404    0.6421 N.am      1 <0>        -0.5614
      7 C5         -3.2002    0.6874   -0.6946 C.2       1 <0>         0.7115
      8 O2         -4.0161    1.2400   -1.4061 O.2       1 <0>        -0.5344
      9 N2         -2.1745   -0.0462   -1.1632 N.am      1 <0>        -0.7136
     10 C6         -4.2275    1.4678    1.4206 C.3       1 <0>         0.0991
     11 C7         -3.7562    2.8797    1.6556 C.2       1 <0>         0.5049
     12 O3         -2.6857    3.2427    1.2160 O.2       1 <0>        -0.5243
     13 N3         -4.5242    3.7391    2.3542 N.am      1 <0>        -0.6084
     14 C8         -5.8206    3.3123    2.8981 C.3       1 <0>         0.1024
     15 C9         -6.9006    4.2893    2.4229 C.3       1 <0>        -0.1373
     16 C10        -6.4970    5.7151    2.8056 C.3       1 <0>        -0.1164
     17 C11        -5.1802    6.0772    2.1149 C.3       1 <0>        -0.1069
     18 H1         -5.2998    5.9898    1.0350 H         1 <0>         0.0752
     19 C12        -4.0783    5.1188    2.5915 C.3       1 <0>         0.1169
     20 C13        -4.7950    7.5144    2.4714 C.3       1 <0>        -0.1466
     21 C14        -1.4407   -2.0400    0.0573 C.ar      1 <0>        -0.0967
     22 C15        -0.4120   -2.7177    0.6846 C.ar      1 <0>        -0.0786
     23 C16        -0.4182   -4.0993    0.7256 C.ar      1 <0>        -0.1069
     24 C17        -1.4542   -4.8038    0.1388 C.ar      1 <0>        -0.0235
     25 C18        -2.4834   -4.1250   -0.4889 C.ar      1 <0>        -0.1077
     26 C19        -2.4790   -2.7433   -0.5244 C.ar      1 <0>        -0.0868
     27 Cl1        -1.4624   -6.5391    0.1895 Cl        1 <0>        -0.0613
     28 H2          1.0039    1.9031    0.0027 H         1 <0>         0.0679
     29 H3         -0.5459    1.8868   -0.8726 H         1 <0>         0.0603
     30 H4         -0.5289    1.8773    0.9072 H         1 <0>         0.0635
     31 H5          0.5123   -0.3556   -0.8948 H         1 <0>         0.0909
     32 H6          0.5293   -0.3651    0.8851 H         1 <0>         0.0924
     33 H7         -1.9639   -0.2200   -2.0939 H         1 <0>         0.4430
     34 H8         -5.1690    1.4856    0.8715 H         1 <0>         0.1289
     35 H9         -4.3752    0.9698    2.3789 H         1 <0>         0.1260
     36 H10        -6.0537    2.3087    2.5422 H         1 <0>         0.0837
     37 H11        -5.7788    3.3154    3.9873 H         1 <0>         0.0768
     38 H12        -7.0040    4.2188    1.3401 H         1 <0>         0.0699
     39 H13        -7.8502    4.0405    2.8964 H         1 <0>         0.0801
     40 H14        -7.2755    6.4099    2.4903 H         1 <0>         0.0686
     41 H15        -6.3697    5.7787    3.8863 H         1 <0>         0.0663
     42 H16        -3.8972    5.2663    3.6562 H         1 <0>         0.0704
     43 H17        -3.1613    5.3075    2.0332 H         1 <0>         0.0932
     44 H18        -4.6744    7.6010    3.5512 H         1 <0>         0.0575
     45 H19        -3.8571    7.7718    1.9792 H         1 <0>         0.0582
     46 H20        -5.5790    8.1941    2.1377 H         1 <0>         0.0602
     47 H21         0.3969   -2.1676    1.1423 H         1 <0>         0.1420
     48 H22         0.3857   -4.6287    1.2154 H         1 <0>         0.1412
     49 H23        -3.2923   -4.6745   -0.9474 H         1 <0>         0.1391
     50 H24        -3.2848   -2.2131   -1.0101 H         1 <0>         0.1329
@<TRIPOS>BOND
     1    1    2 1
     2    1   28 1
     3    1   29 1
     4    1   30 1
     5    2    3 1
     6    2   31 1
     7    2   32 1
     8    3    9 1
     9    3    4 1
    10    3   21 1
    11    4    5 2
    12    4    6 am
    13    6    7 am
    14    6   10 1
    15    7    8 2
    16    7    9 am
    17    9   33 1
    18   10   11 1
    19   10   34 1
    20   10   35 1
    21   11   12 2
    22   11   13 am
    23   13   19 1
    24   13   14 1
    25   14   15 1
    26   14   36 1
    27   14   37 1
    28   15   16 1
    29   15   38 1
    30   15   39 1
    31   16   17 1
    32   16   40 1
    33   16   41 1
    34   17   18 1
    35   17   19 1
    36   17   20 1
    37   19   42 1
    38   19   43 1
    39   20   44 1
    40   20   45 1
    41   20   46 1
    42   21   26 ar
    43   21   22 ar
    44   22   23 ar
    45   22   47 1
    46   23   24 ar
    47   23   48 1
    48   24   25 ar
    49   24   27 1
    50   25   26 ar
    51   25   49 1
    52   26   50 1
@<TRIPOS>MOLECULE
ZINC45969240
   41    44     0     0     0
SMALL
USER_CHARGES

@<TRIPOS>ATOM
      1 C1         -0.0962    1.3681    0.2185 C.ar      1 <0>        -0.0970
      2 C2          1.0948    2.0682    0.1642 C.ar      1 <0>        -0.1213
      3 C3          2.2941    1.3857    0.1205 C.ar      1 <0>        -0.0804
      4 C4          2.3116    0.0005    0.1315 C.ar      1 <0>        -0.1186
      5 C5          1.1183   -0.6999    0.1876 C.ar      1 <0>        -0.0664
      6 C6         -0.0828   -0.0127    0.2293 C.ar      1 <0>        -0.1081
      7 C7          1.3975   -2.1885    0.1951 C.3       1 <0>        -0.0853
      8 C8          2.8572   -2.3302   -0.2927 C.3       1 <0>        -0.1107
      9 C9          3.4591   -0.9721    0.0897 C.3       1 <0>         0.1699
     10 C10         4.1738   -1.0452    1.4138 C.2       1 <0>         0.5452
     11 O1          3.7029   -1.3511    2.4883 O.2       1 <0>        -0.4431
     12 N1          5.4516   -0.6976    1.1477 N.am      1 <0>        -0.5698
     13 C11         5.6264   -0.4207   -0.1511 C.2       1 <0>         0.7089
     14 O2          6.6899   -0.0842   -0.6336 O.2       1 <0>        -0.5311
     15 N2          4.4892   -0.5575   -0.8631 N.am      1 <0>        -0.7085
     16 C12         6.5141   -0.6318    2.1542 C.3       1 <0>         0.1328
     17 C13         7.1973   -1.9714    2.2518 C.2       1 <0>         0.4484
     18 O3          6.8340   -2.8873    1.5524 O.2       1 <0>        -0.4728
     19 O4          8.2096   -2.1473    3.1159 O.3       1 <0>        -0.2842
     20 C14         8.7292   -3.3971    3.2446 C.ar      1 <0>         0.0848
     21 C15         9.5898   -3.8941    2.2766 C.ar      1 <0>        -0.0821
     22 C16        10.1177   -5.1639    2.4082 C.ar      1 <0>        -0.1253
     23 C17         9.7881   -5.9412    3.5055 C.ar      1 <0>         0.1194
     24 C18         8.9284   -5.4468    4.4730 C.ar      1 <0>        -0.0635
     25 C19         8.4037   -4.1738    4.3464 C.ar      1 <0>        -0.0797
     26 Cl1         8.5152   -6.4231    5.8477 Cl        1 <0>        -0.0322
     27 F1         10.3048   -7.1830    3.6326 F         1 <0>        -0.1186
     28 H1         -1.0352    1.9003    0.2568 H         1 <0>         0.1308
     29 H2          1.0869    3.1481    0.1557 H         1 <0>         0.1305
     30 H3          3.2234    1.9344    0.0779 H         1 <0>         0.1203
     31 H4         -1.0135   -0.5590    0.2709 H         1 <0>         0.1280
     32 H5          1.2960   -2.5870    1.2046 H         1 <0>         0.0950
     33 H6          0.7197   -2.7037   -0.4855 H         1 <0>         0.0906
     34 H7          3.3644   -3.1408    0.2305 H         1 <0>         0.0928
     35 H8          2.8929   -2.4807   -1.3717 H         1 <0>         0.1002
     36 H9          4.3768   -0.4105   -1.8153 H         1 <0>         0.4453
     37 H10         7.2415    0.1269    1.8655 H         1 <0>         0.1492
     38 H11         6.0830   -0.3725    3.1211 H         1 <0>         0.1467
     39 H12         9.8468   -3.2886    1.4201 H         1 <0>         0.1481
     40 H13        10.7876   -5.5506    1.6546 H         1 <0>         0.1572
     41 H14         7.7371   -3.7864    5.1027 H         1 <0>         0.1549
@<TRIPOS>BOND
     1    1    6 ar
     2    1    2 ar
     3    1   28 1
     4    2    3 ar
     5    2   29 1
     6    3    4 ar
     7    3   30 1
     8    4    9 1
     9    4    5 ar
    10    5    6 ar
    11    5    7 1
    12    6   31 1
    13    7    8 1
    14    7   32 1
    15    7   33 1
    16    8    9 1
    17    8   34 1
    18    8   35 1
    19    9   15 1
    20    9   10 1
    21   10   11 2
    22   10   12 am
    23   12   13 am
    24   12   16 1
    25   13   14 2
    26   13   15 am
    27   15   36 1
    28   16   17 1
    29   16   37 1
    30   16   38 1
    31   17   18 2
    32   17   19 1
    33   19   20 1
    34   20   25 ar
    35   20   21 ar
    36   21   22 ar
    37   21   39 1
    38   22   23 ar
    39   22   40 1
    40   23   24 ar
    41   23   27 1
    42   24   25 ar
    43   24   26 1
    44   25   41 1
@<TRIPOS>MOLECULE
ZINC60060117
   45    47     0     0     0
SMALL
USER_CHARGES

@<TRIPOS>ATOM
      1 C1         -0.0184    1.5028    0.0103 C.3       1 <0>        -0.1289
      2 C2          0.0021   -0.0041    0.0020 C.ar      1 <0>        -0.0233
      3 C3          0.0057   -0.6888   -1.1991 C.ar      1 <0>        -0.1361
      4 C4          0.0245   -2.0707   -1.2067 C.ar      1 <0>        -0.0215
      5 C5          0.0400   -2.7685   -0.0132 C.ar      1 <0>        -0.6820
      6 C6          0.0373   -2.0840    1.1875 C.ar      1 <0>        -0.0143
      7 C7          0.0229   -0.7015    1.1951 C.ar      1 <0>        -0.1042
      8 C8          0.0252    0.0449    2.5043 C.3       1 <0>        -0.1210
      9 S1          0.0628   -4.5303   -0.0229 S.o2      1 <0>         2.6916
     10 O1         -0.4759   -4.9503    1.2232 O.2       1 <0>        -0.9359
     11 O2         -0.4897   -4.9367   -1.2674 O.2       1 <0>        -0.9354
     12 N1          1.6509   -4.9994   -0.0342 N.pl3     1 <0>        -0.9374
     13 C9          2.4511   -5.2246   -1.2409 C.3       1 <0>         0.1085
     14 C10         3.8408   -5.6400   -0.7310 C.3       1 <0>        -0.0821
     15 C11         3.7150   -5.6168    0.7757 C.ar      1 <0>        -0.1510
     16 C12         2.4241   -5.2322    1.1042 C.ar      1 <0>         0.2184
     17 C13         2.0687   -5.1327    2.4509 C.ar      1 <0>        -0.1752
     18 C14         2.9928   -5.4094    3.4360 C.ar      1 <0>         0.0174
     19 C15         4.2787   -5.7880    3.0977 C.ar      1 <0>        -0.7026
     20 C16         4.6358   -5.8977    1.7663 C.ar      1 <0>         0.0237
     21 S2          5.4567   -6.1402    4.3598 S.o2      1 <0>         2.7005
     22 O3          6.7406   -5.9430    3.7836 O.2       1 <0>        -0.9554
     23 O4          5.0279   -5.4431    5.5215 O.2       1 <0>        -0.9574
     24 N2          5.3360   -7.7552    4.7054 N.pl3     1 <0>        -1.1204
     25 C17         5.6859   -8.7501    3.6886 C.3       1 <0>         0.0820
     26 H1          1.0042    1.8801    0.0026 H         1 <0>         0.0818
     27 H2         -0.5455    1.8639   -0.8728 H         1 <0>         0.0750
     28 H3         -0.5286    1.8543    0.9071 H         1 <0>         0.0774
     29 H4         -0.0064   -0.1437   -2.1314 H         1 <0>         0.1364
     30 H5          0.0266   -2.6056   -2.1449 H         1 <0>         0.1408
     31 H6          0.0491   -2.6290    2.1199 H         1 <0>         0.1402
     32 H7         -1.0017    0.2110    2.8297 H         1 <0>         0.0770
     33 H8          0.5542   -0.5412    3.2558 H         1 <0>         0.0728
     34 H9          0.5249    1.0049    2.3743 H         1 <0>         0.0742
     35 H10         2.0143   -6.0230   -1.8408 H         1 <0>         0.0972
     36 H11         2.5213   -4.3069   -1.8249 H         1 <0>         0.0888
     37 H12         4.0884   -6.6437   -1.0766 H         1 <0>         0.0986
     38 H13         4.5959   -4.9263   -1.0606 H         1 <0>         0.0977
     39 H14         1.0659   -4.8375    2.7220 H         1 <0>         0.1533
     40 H15         2.7112   -5.3298    4.4756 H         1 <0>         0.1500
     41 H16         5.6403   -6.1920    1.5003 H         1 <0>         0.1457
     42 H17         5.0336   -8.0425    5.5812 H         1 <0>         0.4205
     43 H18         5.5445   -9.7512    4.0959 H         1 <0>         0.0846
     44 H19         5.0455   -8.6188    2.8163 H         1 <0>         0.0601
     45 H20         6.7282   -8.6204    3.3969 H         1 <0>         0.0699
@<TRIPOS>BOND
     1    1    2 1
     2    1   26 1
     3    1   27 1
     4    1   28 1
     5    2    7 ar
     6    2    3 ar
     7    3    4 ar
     8    3   29 1
     9    4    5 ar
    10    4   30 1
    11    5    6 ar
    12    5    9 1
    13    6    7 ar
    14    6   31 1
    15    7    8 1
    16    8   32 1
    17    8   33 1
    18    8   34 1
    19    9   10 2
    20    9   11 2
    21    9   12 1
    22   12   16 1
    23   12   13 1
    24   13   14 1
    25   13   35 1
    26   13   36 1
    27   14   15 1
    28   14   37 1
    29   14   38 1
    30   15   20 ar
    31   15   16 ar
    32   16   17 ar
    33   17   18 ar
    34   17   39 1
    35   18   19 ar
    36   18   40 1
    37   19   20 ar
    38   19   21 1
    39   20   41 1
    40   21   22 2
    41   21   23 2
    42   21   24 1
    43   24   25 1
    44   24   42 1
    45   25   43 1
    46   25   44 1
    47   25   45 1
@<TRIPOS>MOLECULE
ZINC66603393
   54    57     0     0     0
SMALL
USER_CHARGES

@<TRIPOS>ATOM
      1 C1         -0.7936    1.3445    0.0874 C.3       1 <0>        -0.1169
      2 C2         -0.2130   -0.0447    0.0236 C.2       1 <0>         0.0401
      3 C3          0.1416   -0.6808    1.1603 C.2       1 <0>        -0.2304
      4 C4          0.1267    0.0363    2.4348 C.2       1 <0>         0.5550
      5 O1         -0.0868    1.2344    2.4564 O.2       1 <0>        -0.5347
      6 N1          0.3494   -0.6295    3.5853 N.am      1 <0>        -0.6142
      7 C5          0.4886   -2.0921    3.5889 C.3       1 <0>         0.1134
      8 C6         -0.4987   -2.6789    4.6026 C.3       1 <0>        -0.1512
      9 C7         -0.2735   -2.0227    5.9667 C.3       1 <0>         0.1681
     10 C8         -0.5290   -0.5176    5.8591 C.3       1 <0>        -0.1497
     11 C9          0.4636    0.0942    4.8588 C.3       1 <0>         0.1191
     12 N2         -1.1938   -2.6052    6.9464 N.am      1 <0>        -0.5349
     13 C10        -0.8274   -3.2714    8.1135 C.ar      1 <0>         0.0913
     14 C11         0.3959   -3.5800    8.6888 C.ar      1 <0>        -0.1060
     15 C12         0.4387   -4.2690    9.8850 C.ar      1 <0>        -0.1074
     16 C13        -0.7345   -4.6532   10.5116 C.ar      1 <0>        -0.1098
     17 C14        -1.9575   -4.3507    9.9460 C.ar      1 <0>        -0.1043
     18 C15        -2.0106   -3.6585    8.7457 C.ar      1 <0>         0.0875
     19 N3         -3.0593   -3.2155    7.9432 N.am      1 <0>        -0.6453
     20 H1         -4.0042   -3.3383    8.1250 H         1 <0>         0.4345
     21 C16        -2.5381   -2.5828    6.8751 C.2       1 <0>         0.6819
     22 O2         -3.1840   -2.0715    5.9795 O.2       1 <0>        -0.5485
     23 C17        -0.0328   -0.7068   -1.2757 C.ar      1 <0>        -0.1036
     24 C18        -0.9065   -1.7243   -1.6747 C.ar      1 <0>        -0.0644
     25 C19        -0.7316   -2.3401   -2.8944 C.ar      1 <0>        -0.1558
     26 C20         0.3060   -1.9568   -3.7291 C.ar      1 <0>        -0.0731
     27 C21         1.1762   -0.9539   -3.3485 C.ar      1 <0>        -0.2082
     28 C22         1.0136   -0.3186   -2.1274 C.ar      1 <0>         0.1472
     29 O3          1.8647    0.6703   -1.7547 O.3       1 <0>        -0.3084
     30 C23         2.9051    1.0111   -2.6730 C.3       1 <0>         0.0254
     31 H2          0.0145    2.0738    0.1433 H         1 <0>         0.0855
     32 H3         -1.3897    1.5305   -0.8061 H         1 <0>         0.0555
     33 H4         -1.4256    1.4340    0.9709 H         1 <0>         0.0889
     34 H5          0.4363   -1.7194    1.1285 H         1 <0>         0.1288
     35 H6          0.2678   -2.4826    2.5955 H         1 <0>         0.0957
     36 H7          1.5062   -2.3616    3.8718 H         1 <0>         0.0731
     37 H8         -1.5188   -2.4864    4.2702 H         1 <0>         0.0892
     38 H9         -0.3393   -3.7540    4.6853 H         1 <0>         0.0814
     39 H10         0.7541   -2.1946    6.2871 H         1 <0>         0.1005
     40 H11        -1.5488   -0.3455    5.5149 H         1 <0>         0.0884
     41 H12        -0.3912   -0.0545    6.8361 H         1 <0>         0.0797
     42 H13         1.4791   -0.0006    5.2432 H         1 <0>         0.0705
     43 H14         0.2261    1.1466    4.7037 H         1 <0>         0.1012
     44 H15         1.3132   -3.2825    8.2025 H         1 <0>         0.1292
     45 H16         1.3914   -4.5094   10.3332 H         1 <0>         0.1340
     46 H17        -0.6930   -5.1921   11.4466 H         1 <0>         0.1341
     47 H18        -2.8706   -4.6527   10.4374 H         1 <0>         0.1314
     48 H19        -1.7164   -2.0266   -1.0273 H         1 <0>         0.1324
     49 H20        -1.4061   -3.1256   -3.2015 H         1 <0>         0.1281
     50 H21         0.4353   -2.4457   -4.6834 H         1 <0>         0.1272
     51 H22         1.9822   -0.6615   -4.0052 H         1 <0>         0.1317
     52 H23         3.5119    1.8134   -2.2532 H         1 <0>         0.1025
     53 H24         3.5318    0.1375   -2.8526 H         1 <0>         0.0567
     54 H25         2.4653    1.3423   -3.6137 H         1 <0>         0.0573
@<TRIPOS>BOND
     1    1    2 1
     2    1   31 1
     3    1   32 1
     4    1   33 1
     5    2    3 2
     6    2   23 1
     7    3    4 1
     8    3   34 1
     9    4    5 2
    10    4    6 am
    11    6   11 1
    12    6    7 1
    13    7    8 1
    14    7   35 1
    15    7   36 1
    16    8    9 1
    17    8   37 1
    18    8   38 1
    19    9   10 1
    20    9   12 1
    21    9   39 1
    22   10   11 1
    23   10   40 1
    24   10   41 1
    25   11   42 1
    26   11   43 1
    27   12   21 am
    28   12   13 1
    29   13   18 ar
    30   13   14 ar
    31   14   15 ar
    32   14   44 1
    33   15   16 ar
    34   15   45 1
    35   16   17 ar
    36   16   46 1
    37   17   18 ar
    38   17   47 1
    39   18   19 1
    40   19   20 1
    41   19   21 am
    42   21   22 2
    43   23   28 ar
    44   23   24 ar
    45   24   25 ar
    46   24   48 1
    47   25   26 ar
    48   25   49 1
    49   26   27 ar
    50   26   50 1
    51   27   28 ar
    52   27   51 1
    53   28   29 1
    54   29   30 1
    55   30   52 1
    56   30   53 1
    57   30   54 1
@<TRIPOS>MOLECULE
ZINC04362119
   58    61     0     0     0
SMALL
USER_CHARGES
N'-benzoyl-2-[(4-methoxyphenyl)methylsulfanyl]quinuclidine-3-carbohydrazide
@<TRIPOS>ATOM
      1 C1         -3.6105    3.0091    0.0526 C.3       1 <0>         0.0228
      2 O1         -2.4216    3.8019    0.0460 O.3       1 <0>        -0.3112
      3 C2         -1.2366    3.1368    0.0307 C.ar      1 <0>         0.1546
      4 C3         -1.2185    1.7496    0.0173 C.ar      1 <0>        -0.2084
      5 C4         -0.0126    1.0758    0.0080 C.ar      1 <0>        -0.0475
      6 C5          1.1757    1.7828    0.0004 C.ar      1 <0>        -0.1417
      7 C6          1.1603    3.1653    0.0084 C.ar      1 <0>        -0.0536
      8 C7         -0.0430    3.8438    0.0236 C.ar      1 <0>        -0.1531
      9 C8          2.4897    1.0452   -0.0161 C.3       1 <0>        -0.0516
     10 S1          3.0006    0.7585   -1.7329 S.3       1 <0>        -0.1489
     11 C9          4.5768   -0.1263   -1.5797 C.3       1 <0>         0.0224
     12 H1          4.6892   -0.4951   -0.5602 H         1 <0>         0.1479
     13 C10         4.5973   -1.3063   -2.5556 C.3       1 <0>        -0.0886
     14 H2          3.6616   -1.3347   -3.1140 H         1 <0>         0.1498
     15 C11         5.7703   -1.1248   -3.5271 C.3       1 <0>        -0.0763
     16 C12         7.0708   -1.0568   -2.7166 C.3       1 <0>        -0.1489
     17 C13         6.9820    0.1166   -1.7367 C.3       1 <0>        -0.0050
     18 C14         5.5406    1.3418   -3.2483 C.3       1 <0>        -0.0099
     19 C15         5.5878    0.2038   -4.2717 C.3       1 <0>        -0.1349
     20 C16         4.7705   -2.5923   -1.7894 C.2       1 <0>         0.5153
     21 O2          5.7294   -3.3027   -2.0057 O.2       1 <0>        -0.5072
     22 N1          3.8598   -2.9531   -0.8637 N.am      1 <0>        -0.5139
     23 N2          4.0208   -4.1487   -0.1514 N.am      1 <0>        -0.5240
     24 C17         3.1101   -4.5095    0.7743 C.2       1 <0>         0.5700
     25 O3          2.1490   -3.7976    0.9911 O.2       1 <0>        -0.5294
     26 C18         3.2800   -5.7712    1.5260 C.ar      1 <0>        -0.1410
     27 C19         4.3794   -6.5938    1.2754 C.ar      1 <0>        -0.0850
     28 C20         4.5348   -7.7672    1.9841 C.ar      1 <0>        -0.1235
     29 C21         3.5980   -8.1347    2.9337 C.ar      1 <0>        -0.0799
     30 C22         2.5029   -7.3266    3.1829 C.ar      1 <0>        -0.1234
     31 C23         2.3386   -6.1478    2.4853 C.ar      1 <0>        -0.0511
     32 H3         -3.6363    2.3854   -0.8409 H         1 <0>         0.0600
     33 H4         -3.6193    2.3747    0.9389 H         1 <0>         0.0605
     34 H5         -4.4829    3.6626    0.0649 H         1 <0>         0.1078
     35 H6         -2.1464    1.1970    0.0184 H         1 <0>         0.1368
     36 H7          0.0021   -0.0041    0.0020 H         1 <0>         0.1312
     37 H8          2.0897    3.7153    0.0025 H         1 <0>         0.1314
     38 H9         -0.0545    4.9237    0.0302 H         1 <0>         0.1389
     39 H10         3.2470    1.6407    0.4937 H         1 <0>         0.1011
     40 H11         2.3758    0.0885    0.4937 H         1 <0>         0.1063
     41 H12         5.8144   -1.9499   -4.2380 H         1 <0>         0.1298
     42 H13         7.9139   -0.9066   -3.3908 H         1 <0>         0.1060
     43 H14         7.2049   -1.9859   -2.1626 H         1 <0>         0.1225
     44 H15         7.7844    0.8247   -1.9437 H         1 <0>         0.1356
     45 H16         7.0777   -0.2539   -0.7161 H         1 <0>         0.1236
     46 H17         4.5869    1.8635   -3.3282 H         1 <0>         0.1393
     47 H18         6.3548    2.0399   -3.4430 H         1 <0>         0.1365
     48 H19         6.4250    0.3590   -4.9522 H         1 <0>         0.1102
     49 H20         4.6555    0.1811   -4.8359 H         1 <0>         0.1043
     50 H21         3.0928   -2.3850   -0.6907 H         1 <0>         0.4325
     51 H22         4.7877   -4.7168   -0.3244 H         1 <0>         0.4358
     52 H23         5.1090   -6.3103    0.5313 H         1 <0>         0.1249
     53 H24         5.3874   -8.4024    1.7943 H         1 <0>         0.1352
     54 H25         3.7219   -9.0565    3.4825 H         1 <0>         0.1346
     55 H26         1.7753   -7.6191    3.9254 H         1 <0>         0.1371
     56 H27         1.4834   -5.5179    2.6808 H         1 <0>         0.1394
     57 N3          5.6832    0.8088   -1.8767 N.4       1 <0>        -0.3778
     58 H28         5.6479    1.5892   -1.2104 H         1 <0>         0.4317
@<TRIPOS>BOND
     1    1    2 1
     2    1   32 1
     3    1   33 1
     4    1   34 1
     5    2    3 1
     6    3    8 ar
     7    3    4 ar
     8    4    5 ar
     9    4   35 1
    10    5    6 ar
    11    5   36 1
    12    6    7 ar
    13    6    9 1
    14    7    8 ar
    15    7   37 1
    16    8   38 1
    17    9   10 1
    18    9   39 1
    19    9   40 1
    20   10   11 1
    21   11   12 1
    22   11   13 1
    23   11   57 1
    24   13   14 1
    25   13   15 1
    26   13   20 1
    27   15   19 1
    28   15   16 1
    29   15   41 1
    30   16   17 1
    31   16   42 1
    32   16   43 1
    33   17   44 1
    34   17   45 1
    35   17   57 1
    36   18   19 1
    37   18   46 1
    38   18   47 1
    39   18   57 1
    40   19   48 1
    41   19   49 1
    42   20   21 2
    43   20   22 am
    44   22   23 1
    45   22   50 1
    46   23   24 am
    47   23   51 1
    48   24   25 2
    49   24   26 1
    50   26   31 ar
    51   26   27 ar
    52   27   28 ar
    53   27   52 1
    54   28   29 ar
    55   28   53 1
    56   29   30 ar
    57   29   54 1
    58   30   31 ar
    59   30   55 1
    60   31   56 1
    61   57   58 1
@<TRIPOS>MOLECULE
ZINC20509634
   50    53     0     0     0
SMALL
USER_CHARGES
1-[(R)-[5-(2-chlorophenyl)-1,3,4-oxadiazol-2-yl]-phenyl-methyl]piperidine-4-carboxamide
@<TRIPOS>ATOM
      1 C1          6.0945    7.7219    3.8761 C.ar      1 <0>        -0.0810
      2 C2          4.8778    8.2580    3.4980 C.ar      1 <0>        -0.1060
      3 C3          4.3650    7.9909    2.2424 C.ar      1 <0>        -0.0774
      4 C4          5.0692    7.1880    1.3647 C.ar      1 <0>        -0.1507
      5 C5          6.2835    6.6476    1.7447 C.ar      1 <0>        -0.1053
      6 C6          6.7983    6.9183    2.9987 C.ar      1 <0>        -0.1030
      7 C7          4.5101    6.8968   -0.0042 C.3       1 <0>         0.2059
      8 H1          3.7724    7.6635   -0.2834 H         1 <0>         0.1673
      9 C8          3.8676    5.5336   -0.0048 C.2       1 <0>         0.0974
     10 N1          4.4912    4.3888   -0.0162 N.2       1 <0>        -0.2452
     11 N2          3.6321    3.4310   -0.0076 N.2       1 <0>        -0.2601
     12 C9          2.4208    3.9363    0.0001 C.2       1 <0>         0.2595
     13 O1          2.5479    5.2783    0.0057 O.3       1 <0>        -0.1848
     14 C10         1.1535    3.1755    0.0076 C.ar      1 <0>        -0.0459
     15 C11         1.1735    1.7799    0.0004 C.ar      1 <0>        -0.0456
     16 C12        -0.0126    1.0758    0.0080 C.ar      1 <0>        -0.1123
     17 C13        -1.2213    1.7496    0.0173 C.ar      1 <0>        -0.0632
     18 C14        -1.2495    3.1322    0.0299 C.ar      1 <0>        -0.1101
     19 C15        -0.0694    3.8498    0.0225 C.ar      1 <0>        -0.0026
     20 Cl1        -0.1061    5.5854    0.0310 Cl        1 <0>        -0.0437
     21 N3          5.5960    6.9268   -0.9931 N.4       1 <0>        -0.3988
     22 C16         6.3110    8.2088   -0.9508 C.3       1 <0>        -0.0043
     23 C17         7.5204    8.1509   -1.8868 C.3       1 <0>        -0.1359
     24 C18         7.0432    7.8581   -3.3119 C.3       1 <0>        -0.1243
     25 C19         6.2602    6.5422   -3.3193 C.3       1 <0>        -0.1248
     26 C20         5.0873    6.6467   -2.3418 C.3       1 <0>        -0.0063
     27 C21         8.2334    7.7410   -4.2289 C.2       1 <0>         0.5202
     28 O2          8.4366    6.7074   -4.8298 O.2       1 <0>        -0.5370
     29 N4          9.0720    8.7851   -4.3811 N.am      1 <0>        -0.8736
     30 H2          6.4955    7.9312    4.8568 H         1 <0>         0.1395
     31 H3          4.3279    8.8858    4.1835 H         1 <0>         0.1407
     32 H4          3.4143    8.4097    1.9471 H         1 <0>         0.1358
     33 H5          6.8315    6.0168    1.0605 H         1 <0>         0.1244
     34 H6          7.7491    6.4997    3.2939 H         1 <0>         0.1403
     35 H7          2.1159    1.2523   -0.0114 H         1 <0>         0.1529
     36 H8          0.0021   -0.0041    0.0020 H         1 <0>         0.1502
     37 H9         -2.1469    1.1930    0.0191 H         1 <0>         0.1495
     38 H10        -2.1962    3.6519    0.0410 H         1 <0>         0.1505
     39 H11         5.6365    9.0156   -1.2734 H         1 <0>         0.1364
     40 H12         6.6520    8.4048    0.0765 H         1 <0>         0.1432
     41 H13         8.0469    9.1165   -1.8657 H         1 <0>         0.1223
     42 H14         8.2025    7.3540   -1.5557 H         1 <0>         0.0981
     43 H15         6.4063    8.6793   -3.6725 H         1 <0>         0.1174
     44 H16         5.8790    6.3480   -4.3327 H         1 <0>         0.1236
     45 H17         6.9229    5.7194   -3.0130 H         1 <0>         0.1015
     46 H18         4.5313    5.6976   -2.3342 H         1 <0>         0.1261
     47 H19         4.4186    7.4609   -2.6579 H         1 <0>         0.1352
     48 H20         9.9408    8.6997   -5.0504 H         1 <0>         0.4348
     49 H21         8.8877    9.7226   -3.8360 H         1 <0>         0.4208
     50 H22         6.3134    6.1341   -0.7342 H         1 <0>         0.4483
@<TRIPOS>BOND
     1    1    6 ar
     2    1    2 ar
     3    1   30 1
     4    2    3 ar
     5    2   31 1
     6    3    4 ar
     7    3   32 1
     8    4    5 ar
     9    4    7 1
    10    5    6 ar
    11    5   33 1
    12    6   34 1
    13    7    8 1
    14    7    9 1
    15    7   21 1
    16    9   13 1
    17    9   10 2
    18   10   11 1
    19   11   12 2
    20   12   13 1
    21   12   14 1
    22   14   19 ar
    23   14   15 ar
    24   15   16 ar
    25   15   35 1
    26   16   17 ar
    27   16   36 1
    28   17   18 ar
    29   17   37 1
    30   18   19 ar
    31   18   38 1
    32   19   20 1
    33   21   26 1
    34   21   22 1
    35   21   50 1
    36   22   23 1
    37   22   39 1
    38   22   40 1
    39   23   24 1
    40   23   41 1
    41   23   42 1
    42   24   25 1
    43   24   27 1
    44   24   43 1
    45   25   26 1
    46   25   44 1
    47   25   45 1
    48   26   46 1
    49   26   47 1
    50   27   28 2
    51   27   29 am
    52   29   48 1
    53   29   49 1
@<TRIPOS>MOLECULE
ZINC39662523
   65    67     0     0     0
SMALL
USER_CHARGES

@<TRIPOS>ATOM
      1 C1          0.2093    1.2691   -0.3455 C.3       1 <0>        -0.1551
      2 C2          0.1593   -0.2578   -0.2627 C.3       1 <0>        -0.1253
      3 C3          0.8912   -0.7246    0.9972 C.3       1 <0>        -0.1218
      4 C4          0.8412   -2.2515    1.0799 C.3       1 <0>        -0.1019
      5 C5          1.5732   -2.7183    2.3398 C.3       1 <0>        -0.1057
      6 H1          1.1481   -2.2216    3.2120 H         1 <0>         0.0983
      7 C6          3.0581   -2.3675    2.2263 C.3       1 <0>        -0.1549
      8 C7          1.4192   -4.2102    2.4866 C.2       1 <0>         0.5452
      9 O1          0.7863   -4.8383    1.6645 O.2       1 <0>        -0.5264
     10 N1          1.9848   -4.8464    3.5314 N.am      1 <0>        -0.6234
     11 C8          2.7823   -4.2549    4.6315 C.3       1 <0>         0.1090
     12 C9          2.3329   -5.0217    5.8955 C.3       1 <0>        -0.1133
     13 H2          1.5484   -4.4710    6.4145 H         1 <0>         0.1149
     14 C10         1.7892   -6.3607    5.3696 C.3       1 <0>        -0.0717
     15 C11         1.9441   -6.2952    3.8433 C.3       1 <0>         0.1062
     16 C12         0.3167   -6.5144    5.7382 C.3       1 <0>        -0.1344
     17 C13        -0.1860   -7.8776    5.2546 C.3       1 <0>        -0.0110
     18 N2          0.6089   -8.9431    5.8772 N.4       1 <0>        -0.5046
     19 C14         2.0077   -8.8431    5.4436 C.3       1 <0>        -0.0072
     20 C15         2.6031   -7.5206    5.9349 C.3       1 <0>        -0.1496
     21 C16         3.5055   -5.2530    6.8135 C.2       1 <0>         0.5242
     22 O2          4.6198   -5.3835    6.3528 O.2       1 <0>        -0.5074
     23 N3          3.3158   -5.3150    8.1464 N.am      1 <0>        -0.7190
     24 C17         4.4556   -5.5399    9.0388 C.3       1 <0>         0.2979
     25 H3          5.1690   -6.2077    8.5558 H         1 <0>         0.1408
     26 C18         5.1091   -4.2542    9.3337 C.1       1 <0>         0.1782
     27 N4          5.6134   -3.2620    9.5612 N.1       1 <0>        -0.3842
     28 C19         3.9729   -6.1641   10.3227 C.ar      1 <0>        -0.1123
     29 C20         2.7888   -5.7391   10.8954 C.ar      1 <0>        -0.1079
     30 C21         2.3460   -6.3117   12.0731 C.ar      1 <0>        -0.1135
     31 C22         3.0871   -7.3097   12.6778 C.ar      1 <0>        -0.1012
     32 C23         4.2708   -7.7354   12.1046 C.ar      1 <0>        -0.1114
     33 C24         4.7114   -7.1657   10.9246 C.ar      1 <0>        -0.0936
     34 H4          1.2481    1.5969   -0.3863 H         1 <0>         0.0544
     35 H5         -0.3122    1.6016   -1.2430 H         1 <0>         0.0561
     36 H6         -0.2723    1.6966    0.5340 H         1 <0>         0.0536
     37 H7         -0.8795   -0.5856   -0.2219 H         1 <0>         0.0615
     38 H8          0.6409   -0.6854   -1.1421 H         1 <0>         0.0626
     39 H9          1.9300   -0.3968    0.9563 H         1 <0>         0.0664
     40 H10         0.4096   -0.2971    1.8766 H         1 <0>         0.0620
     41 H11        -0.1976   -2.5793    1.1207 H         1 <0>         0.0709
     42 H12         1.3228   -2.6790    0.2005 H         1 <0>         0.0711
     43 H13         3.1695   -1.2884    2.1201 H         1 <0>         0.0770
     44 H14         3.5796   -2.7000    3.1239 H         1 <0>         0.0615
     45 H15         3.4831   -2.8642    1.3541 H         1 <0>         0.0640
     46 H16         3.8469   -4.4069    4.4533 H         1 <0>         0.1018
     47 H17         2.5609   -3.1925    4.7327 H         1 <0>         0.0969
     48 H18         1.0909   -6.7658    3.3547 H         1 <0>         0.0894
     49 H19         2.8726   -6.7767    3.5365 H         1 <0>         0.0843
     50 H20         0.2035   -6.4478    6.8202 H         1 <0>         0.0972
     51 H21        -0.2622   -5.7232    5.2618 H         1 <0>         0.1182
     52 H22        -1.2335   -7.9973    5.5310 H         1 <0>         0.1400
     53 H23        -0.0876   -7.9373    4.1707 H         1 <0>         0.1342
     54 H24         0.5620   -8.8530    6.8810 H         1 <0>         0.4278
     55 H25         2.5770   -9.6743    5.8595 H         1 <0>         0.1403
     56 H26         2.0540   -8.8800    4.3553 H         1 <0>         0.1335
     57 H27         3.6362   -7.4389    5.5972 H         1 <0>         0.1280
     58 H28         2.5723   -7.4900    7.0241 H         1 <0>         0.0987
     59 H29         2.4246   -5.2106    8.5148 H         1 <0>         0.4091
     60 H30         2.2098   -4.9593   10.4230 H         1 <0>         0.1219
     61 H31         1.4212   -5.9791   12.5209 H         1 <0>         0.1301
     62 H32         2.7415   -7.7565   13.5983 H         1 <0>         0.1303
     63 H33         4.8500   -8.5148   12.5772 H         1 <0>         0.1326
     64 H34         5.6343   -7.5009   10.4748 H         1 <0>         0.1322
     65 H35         0.2372   -9.8409    5.6050 H         1 <0>         0.4347
@<TRIPOS>BOND
     1    1    2 1
     2    1   34 1
     3    1   35 1
     4    1   36 1
     5    2    3 1
     6    2   37 1
     7    2   38 1
     8    3    4 1
     9    3   39 1
    10    3   40 1
    11    4    5 1
    12    4   41 1
    13    4   42 1
    14    5    6 1
    15    5    7 1
    16    5    8 1
    17    7   43 1
    18    7   44 1
    19    7   45 1
    20    8    9 2
    21    8   10 am
    22   10   15 1
    23   10   11 1
    24   11   12 1
    25   11   46 1
    26   11   47 1
    27   12   13 1
    28   12   14 1
    29   12   21 1
    30   14   20 1
    31   14   15 1
    32   14   16 1
    33   15   48 1
    34   15   49 1
    35   16   17 1
    36   16   50 1
    37   16   51 1
    38   17   18 1
    39   17   52 1
    40   17   53 1
    41   18   19 1
    42   18   54 1
    43   18   65 1
    44   19   20 1
    45   19   55 1
    46   19   56 1
    47   20   57 1
    48   20   58 1
    49   21   22 2
    50   21   23 am
    51   23   24 1
    52   23   59 1
    53   24   25 1
    54   24   26 1
    55   24   28 1
    56   26   27 3
    57   28   33 ar
    58   28   29 ar
    59   29   30 ar
    60   29   60 1
    61   30   31 ar
    62   30   61 1
    63   31   32 ar
    64   31   62 1
    65   32   33 ar
    66   32   63 1
    67   33   64 1
@<TRIPOS>MOLECULE
ZINC36026905
   61    63     0     0     0
SMALL
USER_CHARGES

@<TRIPOS>ATOM
      1 C1         -0.3059    1.8690   -0.2932 C.3       1 <0>        -0.1551
      2 C2         -0.1534    0.3635   -0.0673 C.3       1 <0>        -0.1202
      3 C3          0.3471   -0.2971   -1.3534 C.3       1 <0>        -0.1163
      4 H1         -0.3237   -0.0467   -2.1753 H         1 <0>         0.0898
      5 C4          1.7553    0.2091   -1.6721 C.3       1 <0>        -0.1708
      6 C5          0.3809   -1.8153   -1.1672 C.3       1 <0>         0.1003
      7 N1          1.0381   -2.4343   -2.3210 N.am      1 <0>        -0.6111
      8 C6          0.4876   -2.5823   -3.5440 C.2       1 <0>         0.5141
      9 O1         -0.6275   -2.2309   -3.8665 O.2       1 <0>        -0.4376
     10 C7          1.4964   -3.2602   -4.4456 C.3       1 <0>         0.0000
     11 H2          1.2503   -4.3154   -4.5646 H         1 <0>         0.1796
     12 N2          2.7936   -3.1085   -3.7433 N.4       1 <0>        -0.5140
     13 C8          2.3969   -2.9827   -2.3267 C.3       1 <0>         0.2849
     14 C9          2.4139   -4.3602   -1.6665 C.3       1 <0>        -0.1558
     15 C10         1.9658   -4.2299   -0.2070 C.3       1 <0>         0.0894
     16 N3          2.8046   -3.2225    0.4566 N.pl3     1 <0>        -0.5534
     17 C11         2.9125   -1.8858   -0.1437 C.3       1 <0>         0.0479
     18 C12         3.3526   -2.0354   -1.6038 C.3       1 <0>        -0.1786
     19 C13         3.4624   -3.5189    1.5950 C.2       1 <0>         0.5653
     20 S1          3.2264   -5.0376    2.3494 S.2       1 <0>        -0.5059
     21 N4          4.3059   -2.6198    2.1395 N.pl3     1 <0>        -0.7002
     22 C14         3.8009   -1.5531    2.8943 C.ar      1 <0>         0.1382
     23 C15         2.4433   -1.4839    3.1773 C.ar      1 <0>        -0.1313
     24 C16         1.9463   -0.4324    3.9218 C.ar      1 <0>        -0.1090
     25 C17         2.8029    0.5547    4.3866 C.ar      1 <0>         0.1082
     26 C18         4.1592    0.4864    4.1039 C.ar      1 <0>        -0.1662
     27 C19         4.6586   -0.5677    3.3647 C.ar      1 <0>        -0.1174
     28 O2          2.3127    1.5901    5.1193 O.3       1 <0>        -0.3145
     29 C20         3.2514    2.5707    5.5655 C.3       1 <0>         0.0249
     30 C21         1.5420   -2.5679   -5.8093 C.3       1 <0>        -0.1707
     31 H3          0.6590    2.2947   -0.5686 H         1 <0>         0.0572
     32 H4         -1.0230    2.0453   -1.0950 H         1 <0>         0.0578
     33 H5         -0.6625    2.3396    0.6230 H         1 <0>         0.0639
     34 H6          0.5636    0.1872    0.7345 H         1 <0>         0.0666
     35 H7         -1.1183   -0.0622    0.2080 H         1 <0>         0.0726
     36 H8          2.4296   -0.0556   -0.8577 H         1 <0>         0.0696
     37 H9          2.1054   -0.2490   -2.5971 H         1 <0>         0.0470
     38 H10         1.7342    1.2927   -1.7887 H         1 <0>         0.0764
     39 H11         0.9347   -2.0579   -0.2603 H         1 <0>         0.1188
     40 H12        -0.6378   -2.1938   -1.0830 H         1 <0>         0.1036
     41 H13         3.3719   -3.9235   -3.8830 H         1 <0>         0.4490
     42 H14         1.7340   -5.0263   -2.1976 H         1 <0>         0.1156
     43 H15         3.4242   -4.7678   -1.7017 H         1 <0>         0.1140
     44 H16         0.9222   -3.9174   -0.1716 H         1 <0>         0.0988
     45 H17         2.0794   -5.1896    0.2972 H         1 <0>         0.1527
     46 H18         1.9438   -1.3877   -0.1032 H         1 <0>         0.1368
     47 H19         3.6509   -1.2986    0.4022 H         1 <0>         0.1210
     48 H20         4.3634   -2.4419   -1.6391 H         1 <0>         0.1122
     49 H21         3.3354   -1.0603   -2.0905 H         1 <0>         0.1315
     50 H22         5.2627   -2.7113    2.0087 H         1 <0>         0.4280
     51 H23         1.7762   -2.2520    2.8149 H         1 <0>         0.1231
     52 H24         0.8903   -0.3784    4.1419 H         1 <0>         0.1377
     53 H25         4.8255    1.2557    4.4655 H         1 <0>         0.1373
     54 H26         5.7153   -0.6233    3.1488 H         1 <0>         0.1319
     55 H27         2.7303    3.3389    6.1369 H         1 <0>         0.1048
     56 H28         4.0018    2.0947    6.1967 H         1 <0>         0.0585
     57 H29         3.7381    3.0267    4.7033 H         1 <0>         0.0564
     58 H30         1.8030   -1.5181   -5.6752 H         1 <0>         0.0857
     59 H31         2.2906   -3.0511   -6.4372 H         1 <0>         0.0991
     60 H32         0.5650   -2.6413   -6.2869 H         1 <0>         0.1209
     61 H33         3.2702   -2.2742   -4.0513 H         1 <0>         0.4371
@<TRIPOS>BOND
     1    1    2 1
     2    1   31 1
     3    1   32 1
     4    1   33 1
     5    2    3 1
     6    2   34 1
     7    2   35 1
     8    3    4 1
     9    3    5 1
    10    3    6 1
    11    5   36 1
    12    5   37 1
    13    5   38 1
    14    6    7 1
    15    6   39 1
    16    6   40 1
    17    7   13 1
    18    7    8 am
    19    8    9 2
    20    8   10 1
    21   10   11 1
    22   10   12 1
    23   10   30 1
    24   12   13 1
    25   12   41 1
    26   12   61 1
    27   13   18 1
    28   13   14 1
    29   14   15 1
    30   14   42 1
    31   14   43 1
    32   15   16 1
    33   15   44 1
    34   15   45 1
    35   16   17 1
    36   16   19 1
    37   17   18 1
    38   17   46 1
    39   17   47 1
    40   18   48 1
    41   18   49 1
    42   19   20 2
    43   19   21 1
    44   21   22 1
    45   21   50 1
    46   22   27 ar
    47   22   23 ar
    48   23   24 ar
    49   23   51 1
    50   24   25 ar
    51   24   52 1
    52   25   26 ar
    53   25   28 1
    54   26   27 ar
    55   26   53 1
    56   27   54 1
    57   28   29 1
    58   29   55 1
    59   29   56 1
    60   29   57 1
    61   30   58 1
    62   30   59 1
    63   30   60 1
@<TRIPOS>MOLECULE
ZINC65074673
   58    61     0     0     0
SMALL
USER_CHARGES

@<TRIPOS>ATOM
      1 C1         -0.0184    1.5028    0.0103 C.3       1 <0>        -0.1300
      2 C2          0.0021   -0.0041    0.0020 C.ar      1 <0>        -0.0212
      3 C3          0.0057   -0.6887   -1.1989 C.ar      1 <0>        -0.1406
      4 C4          0.0245   -2.0709   -1.2065 C.ar      1 <0>        -0.0174
      5 C5          0.0400   -2.7685   -0.0132 C.ar      1 <0>        -0.6887
      6 C6          0.0373   -2.0839    1.1877 C.ar      1 <0>        -0.0179
      7 C7          0.0229   -0.7016    1.1953 C.ar      1 <0>        -0.1411
      8 S1          0.0628   -4.5303   -0.0229 S.o2      1 <0>         2.6881
      9 O1         -0.4759   -4.9503    1.2232 O.2       1 <0>        -0.9440
     10 O2         -0.4897   -4.9367   -1.2674 O.2       1 <0>        -0.9415
     11 N1          1.6509   -4.9994   -0.0343 N.pl3     1 <0>        -1.0027
     12 C8          2.3640   -5.1988   -1.3033 C.3       1 <0>         0.1183
     13 C9          3.6456   -4.3602   -1.2860 C.3       1 <0>        -0.1257
     14 C10         4.4667   -4.7154   -0.0433 C.3       1 <0>         0.1289
     15 C11         3.6562   -4.3850    1.2131 C.3       1 <0>        -0.1685
     16 C12         2.3762   -5.2185    1.2246 C.3       1 <0>         0.1199
     17 C13         5.7425   -3.9216   -0.0410 C.cat     1 <0>         0.5324
     18 N2          6.8850   -4.4192    0.2481 N.pl3     1 <0>        -0.5975
     19 C14         7.0937   -5.8193    0.6026 C.3       1 <0>         0.0861
     20 C15         5.7616   -6.4676    0.9859 C.3       1 <0>         0.0168
     21 N3          4.7720   -6.1534   -0.0589 N.3       1 <0>        -0.6653
     22 N4          5.6788   -2.5924   -0.3667 N.pl3     1 <0>        -0.6685
     23 C16         6.8988   -1.7814   -0.3769 C.3       1 <0>         0.1240
     24 C17         6.5577   -0.3657   -0.7648 C.ar      1 <0>        -0.1381
     25 C18         6.5684    0.0080   -2.0956 C.ar      1 <0>        -0.0921
     26 C19         6.2555    1.3066   -2.4514 C.ar      1 <0>        -0.1162
     27 C20         5.9315    2.2314   -1.4764 C.ar      1 <0>        -0.0898
     28 C21         5.9199    1.8574   -0.1457 C.ar      1 <0>        -0.1169
     29 C22         6.2286    0.5577    0.2098 C.ar      1 <0>        -0.0931
     30 H1          1.0042    1.8801    0.0026 H         1 <0>         0.0799
     31 H2         -0.5455    1.8639   -0.8728 H         1 <0>         0.0767
     32 H3         -0.5286    1.8543    0.9071 H         1 <0>         0.0765
     33 H4         -0.0064   -0.1436   -2.1312 H         1 <0>         0.1350
     34 H5          0.0266   -2.6057   -2.1448 H         1 <0>         0.1403
     35 H6          0.0491   -2.6289    2.1200 H         1 <0>         0.1390
     36 H7          0.0245   -0.1667    2.1335 H         1 <0>         0.1345
     37 H8          2.6184   -6.2525   -1.4179 H         1 <0>         0.0942
     38 H9          1.7308   -4.8815   -2.1320 H         1 <0>         0.1121
     39 H10         4.2306   -4.5712   -2.1812 H         1 <0>         0.1057
     40 H11         3.3872   -3.3015   -1.2610 H         1 <0>         0.0844
     41 H12         4.2487   -4.6138    2.0989 H         1 <0>         0.0958
     42 H13         3.3977   -3.3260    1.2113 H         1 <0>         0.0938
     43 H14         1.7512   -4.9142    2.0641 H         1 <0>         0.1138
     44 H15         2.6316   -6.2738    1.3202 H         1 <0>         0.0834
     45 H16         7.5213   -6.3481   -0.2492 H         1 <0>         0.1210
     46 H17         7.7814   -5.8801    1.4461 H         1 <0>         0.1239
     47 H18         5.8874   -7.5479    1.0583 H         1 <0>         0.1284
     48 H19         5.4229   -6.0705    1.9428 H         1 <0>         0.0665
     49 H20         3.9337   -6.7023    0.0602 H         1 <0>         0.3808
     50 H21         4.8259   -2.1883   -0.5907 H         1 <0>         0.4374
     51 H22         7.3477   -1.7879    0.6164 H         1 <0>         0.1004
     52 H23         7.6044   -2.1955   -1.0971 H         1 <0>         0.1021
     53 H24         6.8216   -0.7146   -2.8574 H         1 <0>         0.1273
     54 H25         6.2646    1.5987   -3.4911 H         1 <0>         0.1333
     55 H26         5.6877    3.2461   -1.7544 H         1 <0>         0.1330
     56 H27         5.6670    2.5801    0.6161 H         1 <0>         0.1324
     57 H28         6.2159    0.2646    1.2492 H         1 <0>         0.1257
     58 H29         7.6569   -3.8320    0.2310 H         1 <0>         0.4251
@<TRIPOS>BOND
     1    1    2 1
     2    1   30 1
     3    1   31 1
     4    1   32 1
     5    2    7 ar
     6    2    3 ar
     7    3    4 ar
     8    3   33 1
     9    4    5 ar
    10    4   34 1
    11    5    6 ar
    12    5    8 1
    13    6    7 ar
    14    6   35 1
    15    7   36 1
    16    8    9 2
    17    8   10 2
    18    8   11 1
    19   11   16 1
    20   11   12 1
    21   12   13 1
    22   12   37 1
    23   12   38 1
    24   13   14 1
    25   13   39 1
    26   13   40 1
    27   14   21 1
    28   14   15 1
    29   14   17 1
    30   15   16 1
    31   15   41 1
    32   15   42 1
    33   16   43 1
    34   16   44 1
    35   17   18 2
    36   17   22 1
    37   18   19 1
    38   18   58 1
    39   19   20 1
    40   19   45 1
    41   19   46 1
    42   20   21 1
    43   20   47 1
    44   20   48 1
    45   21   49 1
    46   22   23 1
    47   22   50 1
    48   23   24 1
    49   23   51 1
    50   23   52 1
    51   24   29 ar
    52   24   25 ar
    53   25   26 ar
    54   25   53 1
    55   26   27 ar
    56   26   54 1
    57   27   28 ar
    58   27   55 1
    59   28   29 ar
    60   28   56 1
    61   29   57 1
@<TRIPOS>MOLECULE
ZINC04231211
   61    63     0     0     0
SMALL
USER_CHARGES
1-(3-dimethylaminopropyl)-1-[(7,8-dimethyl-2-oxo-1H-quinolin-3-yl)methyl]-3-(2-fluorophenyl)-urea
@<TRIPOS>ATOM
      1 C1          3.0294    4.4163   -7.3886 C.3       1 <0>        -0.1285
      2 C2          2.5868    4.1847   -5.9668 C.ar      1 <0>        -0.0231
      3 C3          1.8674    5.1688   -5.3023 C.ar      1 <0>        -0.1475
      4 C4          1.4571    4.9792   -4.0132 C.ar      1 <0>        -0.0560
      5 C5          1.7636    3.7824   -3.3569 C.ar      1 <0>        -0.1474
      6 C6          1.3350    3.5440   -1.9774 C.2       1 <0>         0.0017
      7 C7          1.6661    2.3673   -1.3906 C.2       1 <0>        -0.2133
      8 C8          2.3995    1.3973   -2.1069 C.2       1 <0>         0.5279
      9 O1          2.6830    0.3446   -1.5619 O.2       1 <0>        -0.4938
     10 N1          2.7937    1.6055   -3.3754 N.am      1 <0>        -0.6362
     11 H1          3.3124    0.8963   -3.8529 H         1 <0>         0.4209
     12 C9          2.4931    2.7826   -4.0272 C.ar      1 <0>         0.2003
     13 C10         2.9007    2.9984   -5.3396 C.ar      1 <0>        -0.1346
     14 C11         3.6830    1.9392   -6.0726 C.3       1 <0>        -0.1214
     15 C12         1.2441    2.0917    0.0297 C.3       1 <0>         0.1920
     16 N2         -0.0150    1.3428    0.0284 N.am      1 <0>        -0.6209
     17 C13        -1.2931    2.0587    0.0405 C.3       1 <0>         0.1106
     18 C14        -1.7351    2.2887    1.4871 C.3       1 <0>        -0.1782
     19 C15        -3.0699    3.0364    1.4998 C.3       1 <0>        -0.0051
     20 C16        -4.6418    4.1724    2.9493 C.3       1 <0>        -0.0430
     21 C17        -3.8005    1.9841    3.5544 C.3       1 <0>        -0.0485
     22 C18         0.0025   -0.0048    0.0105 C.2       1 <0>         0.6930
     23 O2          1.0633   -0.5988   -0.0046 O.2       1 <0>        -0.5095
     24 N3         -1.1558   -0.6938    0.0094 N.am      1 <0>        -0.6860
     25 C19        -1.1402   -2.0899   -0.1040 C.ar      1 <0>         0.1262
     26 C20        -0.1128   -2.8232    0.4732 C.ar      1 <0>        -0.0912
     27 C21        -0.1027   -4.2003    0.3643 C.ar      1 <0>        -0.1070
     28 C22        -1.1087   -4.8488   -0.3281 C.ar      1 <0>        -0.1017
     29 C23        -2.1316   -4.1224   -0.9094 C.ar      1 <0>        -0.1341
     30 C24        -2.1508   -2.7438   -0.7999 C.ar      1 <0>         0.0653
     31 F1         -3.1496   -2.0338   -1.3685 F         1 <0>        -0.1423
     32 H2          2.2585    4.0600   -8.0717 H         1 <0>         0.0806
     33 H3          3.1929    5.4820   -7.5492 H         1 <0>         0.0745
     34 H4          3.9571    3.8746   -7.5731 H         1 <0>         0.0770
     35 H5          1.6304    6.0927   -5.8089 H         1 <0>         0.1318
     36 H6          0.8979    5.7496   -3.5032 H         1 <0>         0.1331
     37 H7          0.7704    4.2901   -1.4380 H         1 <0>         0.1390
     38 H8          2.9941    1.2713   -6.5897 H         1 <0>         0.0770
     39 H9          4.3438    2.4128   -6.7987 H         1 <0>         0.0840
     40 H10         4.2769    1.3675   -5.3595 H         1 <0>         0.0628
     41 H11         1.1050    3.0355    0.5570 H         1 <0>         0.0907
     42 H12         2.0148    1.5059    0.5305 H         1 <0>         0.1084
     43 H13        -1.1762    3.0194   -0.4609 H         1 <0>         0.0958
     44 H14        -2.0461    1.4666   -0.4797 H         1 <0>         0.0833
     45 H15        -1.8520    1.3280    1.9885 H         1 <0>         0.0906
     46 H16        -0.9821    2.8808    2.0073 H         1 <0>         0.0974
     47 H17        -2.9530    3.9971    0.9984 H         1 <0>         0.1338
     48 H18        -3.8229    2.4443    0.9796 H         1 <0>         0.1335
     49 H19        -5.4763    3.7461    2.3925 H         1 <0>         0.1237
     50 H20        -4.9355    4.3186    3.9888 H         1 <0>         0.1235
     51 H21        -4.3652    5.1316    2.5116 H         1 <0>         0.1224
     52 H22        -2.9122    1.3524    3.5566 H         1 <0>         0.1214
     53 H23        -4.1120    2.1767    4.5811 H         1 <0>         0.1243
     54 H24        -4.6045    1.4786    3.0195 H         1 <0>         0.1245
     55 H25        -2.0003   -0.2229    0.0871 H         1 <0>         0.3989
     56 H26         0.6763   -2.3178    1.0102 H         1 <0>         0.1511
     57 H27         0.6946   -4.7711    0.8170 H         1 <0>         0.1360
     58 H28        -1.0953   -5.9252   -0.4155 H         1 <0>         0.1373
     59 H29        -2.9159   -4.6318   -1.4496 H         1 <0>         0.1408
     60 N4         -3.4725    3.2696    2.9027 N.4       1 <0>        -0.3972
     61 H30        -2.6920    3.7086    3.4051 H         1 <0>         0.4317
@<TRIPOS>BOND
     1    1    2 1
     2    1   32 1
     3    1   33 1
     4    1   34 1
     5    2   13 ar
     6    2    3 ar
     7    3    4 ar
     8    3   35 1
     9    4    5 ar
    10    4   36 1
    11    5   12 ar
    12    5    6 1
    13    6    7 2
    14    6   37 1
    15    7    8 1
    16    7   15 1
    17    8    9 2
    18    8   10 am
    19   10   11 1
    20   10   12 1
    21   12   13 ar
    22   13   14 1
    23   14   38 1
    24   14   39 1
    25   14   40 1
    26   15   16 1
    27   15   41 1
    28   15   42 1
    29   16   17 1
    30   16   22 am
    31   17   18 1
    32   17   43 1
    33   17   44 1
    34   18   19 1
    35   18   45 1
    36   18   46 1
    37   19   47 1
    38   19   48 1
    39   19   60 1
    40   20   49 1
    41   20   50 1
    42   20   51 1
    43   20   60 1
    44   21   52 1
    45   21   53 1
    46   21   54 1
    47   21   60 1
    48   22   23 2
    49   22   24 am
    50   24   25 1
    51   24   55 1
    52   25   30 ar
    53   25   26 ar
    54   26   27 ar
    55   26   56 1
    56   27   28 ar
    57   27   57 1
    58   28   29 ar
    59   28   58 1
    60   29   30 ar
    61   29   59 1
    62   30   31 1
    63   60   61 1
@<TRIPOS>MOLECULE
ZINC08964116
   61    64     0     0     0
SMALL
USER_CHARGES
N-(3-fluoro-4-methyl-phenyl)-N'-[(2S)-2-(1-methylindolin-5-yl)-2-pyrrolidin-1-yl-ethyl]oxamide
@<TRIPOS>ATOM
      1 C1        -11.2093   -0.4374   -5.3859 C.3       1 <0>        -0.1189
      2 C2        -10.5451    0.6935   -4.6436 C.ar      1 <0>        -0.1195
      3 C3        -11.0664    1.9718   -4.7235 C.ar      1 <0>        -0.0721
      4 C4        -10.4633    3.0096   -4.0409 C.ar      1 <0>        -0.1382
      5 C5         -9.3246    2.7716   -3.2807 C.ar      1 <0>         0.1499
      6 C6         -8.8019    1.4875   -3.2012 C.ar      1 <0>        -0.1498
      7 C7         -9.4134    0.4506   -3.8830 C.ar      1 <0>         0.1161
      8 F1         -8.9062   -0.7993   -3.8072 F         1 <0>        -0.1303
      9 N1         -8.7100    3.8212   -2.5932 N.am      1 <0>        -0.6355
     10 C8         -7.3683    3.8517   -2.4696 C.2       1 <0>         0.5087
     11 O1         -6.7000    2.9242   -2.8774 O.2       1 <0>        -0.4920
     12 C9         -6.7037    5.0269   -1.8308 C.2       1 <0>         0.5216
     13 O2         -7.3719    5.9543   -1.4230 O.2       1 <0>        -0.4989
     14 N2         -5.3620    5.0574   -1.7072 N.am      1 <0>        -0.6982
     15 C10        -4.7101    6.2101   -1.0806 C.3       1 <0>         0.1054
     16 C11        -3.1914    6.0438   -1.1625 C.3       1 <0>         0.0842
     17 H1         -2.8967    5.9037   -2.2025 H         1 <0>         0.1474
     18 C12        -2.7734    4.8417   -0.3556 C.ar      1 <0>        -0.1796
     19 C13        -2.6536    4.9375    1.0189 C.ar      1 <0>        -0.0860
     20 C14        -2.2744    3.8392    1.7618 C.ar      1 <0>        -0.1275
     21 C15        -2.0095    2.6242    1.1319 C.ar      1 <0>         0.1342
     22 C16        -2.1276    2.5397   -0.2502 C.ar      1 <0>        -0.1250
     23 C17        -2.5093    3.6405   -0.9882 C.ar      1 <0>        -0.0489
     24 C18        -1.7759    1.1245   -0.6635 C.3       1 <0>        -0.0908
     25 C19        -1.0607    0.5685    0.5893 C.3       1 <0>         0.0424
     26 N3         -1.6250    1.3916    1.6810 N.pl3     1 <0>        -0.4786
     27 C20        -0.6476    1.5735    2.7624 C.3       1 <0>         0.0135
     28 C21        -1.0590    7.1146   -0.6782 C.3       1 <0>        -0.0019
     29 C22        -0.5706    8.5827   -0.5958 C.3       1 <0>        -0.1468
     30 C23        -1.6237    9.3449   -1.4323 C.3       1 <0>        -0.1443
     31 C24        -2.8665    8.4356   -1.4396 C.3       1 <0>        -0.0166
     32 H2        -11.9606   -0.9003   -4.7460 H         1 <0>         0.0788
     33 H3        -11.6872   -0.0502   -6.2858 H         1 <0>         0.0764
     34 H4        -10.4606   -1.1796   -5.6627 H         1 <0>         0.0725
     35 H5        -11.9492    2.1579   -5.3172 H         1 <0>         0.1434
     36 H6        -10.8742    4.0065   -4.1007 H         1 <0>         0.1379
     37 H7         -7.9196    1.2985   -2.6077 H         1 <0>         0.1503
     38 H8         -9.2490    4.5280   -2.2047 H         1 <0>         0.4273
     39 H9         -4.8279    4.3161   -2.0332 H         1 <0>         0.4193
     40 H10        -5.0127    6.2748   -0.0355 H         1 <0>         0.0965
     41 H11        -5.0045    7.1213   -1.6013 H         1 <0>         0.0995
     42 H12        -2.8583    5.8761    1.5125 H         1 <0>         0.1220
     43 H13        -2.1828    3.9206    2.8348 H         1 <0>         0.1347
     44 H14        -2.6025    3.5643   -2.0615 H         1 <0>         0.1329
     45 H15        -1.1038    1.1287   -1.5216 H         1 <0>         0.0920
     46 H16        -2.6768    0.5505   -0.8803 H         1 <0>         0.0989
     47 H17        -1.3001   -0.4848    0.7357 H         1 <0>         0.1059
     48 H18         0.0173    0.7117    0.5147 H         1 <0>         0.0702
     49 H19         0.2397    2.0705    2.3703 H         1 <0>         0.0455
     50 H20        -1.0875    2.1840    3.5509 H         1 <0>         0.0792
     51 H21        -0.3696    0.6008    3.1683 H         1 <0>         0.0867
     52 H22        -0.6933    6.5392    0.1723 H         1 <0>         0.1371
     53 H23        -0.7461    6.6572   -1.6167 H         1 <0>         0.1346
     54 H24         0.4206    8.6848   -1.0377 H         1 <0>         0.1171
     55 H25        -0.5716    8.9321    0.4367 H         1 <0>         0.0986
     56 H26        -1.2609    9.4979   -2.4487 H         1 <0>         0.1045
     57 H27        -1.8577   10.3016   -0.9653 H         1 <0>         0.1064
     58 H28        -3.1002    8.1344   -2.4608 H         1 <0>         0.1328
     59 H29        -3.7166    8.9601   -1.0036 H         1 <0>         0.1367
     60 N4         -2.5216    7.2675   -0.6280 N.4       1 <0>        -0.3891
     61 H30        -2.8214    7.4187    0.3423 H         1 <0>         0.4274
@<TRIPOS>BOND
     1    1    2 1
     2    1   32 1
     3    1   33 1
     4    1   34 1
     5    2    7 ar
     6    2    3 ar
     7    3    4 ar
     8    3   35 1
     9    4    5 ar
    10    4   36 1
    11    5    6 ar
    12    5    9 1
    13    6    7 ar
    14    6   37 1
    15    7    8 1
    16    9   10 am
    17    9   38 1
    18   10   11 2
    19   10   12 1
    20   12   13 2
    21   12   14 am
    22   14   15 1
    23   14   39 1
    24   15   16 1
    25   15   40 1
    26   15   41 1
    27   16   17 1
    28   16   18 1
    29   16   60 1
    30   18   23 ar
    31   18   19 ar
    32   19   20 ar
    33   19   42 1
    34   20   21 ar
    35   20   43 1
    36   21   26 1
    37   21   22 ar
    38   22   23 ar
    39   22   24 1
    40   23   44 1
    41   24   25 1
    42   24   45 1
    43   24   46 1
    44   25   26 1
    45   25   47 1
    46   25   48 1
    47   26   27 1
    48   27   49 1
    49   27   50 1
    50   27   51 1
    51   28   29 1
    52   28   52 1
    53   28   53 1
    54   28   60 1
    55   29   30 1
    56   29   54 1
    57   29   55 1
    58   30   31 1
    59   30   56 1
    60   30   57 1
    61   31   58 1
    62   31   59 1
    63   31   60 1
    64   60   61 1
@<TRIPOS>MOLECULE
ZINC22934508
   59    62     0     0     0
SMALL
USER_CHARGES

@<TRIPOS>ATOM
      1 C1         -0.4464   -1.1719   -0.8440 C.3       1 <0>        -0.1492
      2 C2          0.0067    0.0158    0.0074 C.3       1 <0>        -0.0932
      3 C3          0.7343   -0.4889    1.2268 C.ar      1 <0>        -0.0498
      4 C4          0.0283   -0.7618    2.3858 C.ar      1 <0>        -0.1299
      5 C5          0.6863   -1.2238    3.5057 C.ar      1 <0>        -0.0925
      6 C6          2.0719   -1.4166    3.4685 C.ar      1 <0>        -0.1016
      7 C7          2.7782   -1.1383    2.2928 C.ar      1 <0>        -0.0740
      8 C8          2.1042   -0.6823    1.1800 C.ar      1 <0>        -0.1203
      9 C9          2.7817   -1.9084    4.6580 C.2       1 <0>         0.0217
     10 C10         2.1170   -2.0586    5.8304 C.2       1 <0>        -0.0677
     11 C11         2.7103   -2.4291    7.1256 C.2       1 <0>         0.4138
     12 O1          3.8810   -2.6624    7.3704 O.2       1 <0>        -0.3992
     13 C12         1.5705   -2.4540    8.0601 C.ar      1 <0>        -0.2591
     14 C13         1.4602   -2.7307    9.4235 C.ar      1 <0>         0.0386
     15 C14         0.2390   -2.6735   10.0331 C.ar      1 <0>        -0.1752
     16 C15        -0.8951   -2.3398    9.2973 C.ar      1 <0>         0.2034
     17 C16        -0.8003   -2.0627    7.9432 C.ar      1 <0>        -0.2089
     18 C17         0.4342   -2.1164    7.3077 C.ar      1 <0>         0.1723
     19 O2          0.7880   -1.8895    6.0239 O.3       1 <0>        -0.2084
     20 C18        -2.0362   -1.7034    7.1593 C.3       1 <0>         0.0508
     21 N1         -2.2316   -0.2479    7.1930 N.4       1 <0>        -0.3853
     22 C19        -2.5068    0.1771    8.5719 C.3       1 <0>        -0.0109
     23 C20        -2.6917    1.6956    8.6106 C.3       1 <0>         0.0271
     24 N2         -3.8075    2.0729    7.7315 N.3       1 <0>        -0.5275
     25 C21        -3.5573    1.6318    6.3520 C.3       1 <0>         0.0210
     26 C22        -3.3652    0.1138    6.3319 C.3       1 <0>        -0.0016
     27 C23        -4.0538    3.5201    7.7850 C.3       1 <0>         0.0538
     28 C24        -5.3636    3.8416    7.0626 C.3       1 <0>         0.0765
     29 O3         -6.4548    3.2462    7.7675 O.3       1 <0>        -0.5623
     30 O4         -2.1041   -2.2860    9.9119 O.3       1 <0>        -0.4830
     31 H1         -1.1135   -1.8050   -0.2589 H         1 <0>         0.0556
     32 H2         -0.9727   -0.8069   -1.7260 H         1 <0>         0.0645
     33 H3          0.4242   -1.7500   -1.1538 H         1 <0>         0.0590
     34 H4          0.6737    0.6488   -0.5777 H         1 <0>         0.0785
     35 H5         -0.8640    0.5939    0.3172 H         1 <0>         0.0743
     36 H6         -1.0409   -0.6121    2.4129 H         1 <0>         0.1240
     37 H7          0.1341   -1.4359    4.4092 H         1 <0>         0.1346
     38 H8          3.8476   -1.2841    2.2561 H         1 <0>         0.1352
     39 H9          2.6470   -0.4715    0.2704 H         1 <0>         0.1329
     40 H10         3.8326   -2.1501    4.5983 H         1 <0>         0.1715
     41 H11         2.3387   -2.9901    9.9956 H         1 <0>         0.1547
     42 H12         0.1529   -2.8879   11.0881 H         1 <0>         0.1588
     43 H13        -1.9190   -2.0304    6.1261 H         1 <0>         0.1409
     44 H14        -2.9024   -2.1966    7.6004 H         1 <0>         0.1504
     45 H15        -3.4155   -0.3088    8.9273 H         1 <0>         0.1465
     46 H16        -1.6705   -0.1035    9.2123 H         1 <0>         0.1221
     47 H17        -2.9107    2.0094    9.6312 H         1 <0>         0.1260
     48 H18        -1.7784    2.1821    8.2681 H         1 <0>         0.0600
     49 H19        -4.4078    1.8991    5.7248 H         1 <0>         0.1252
     50 H20        -2.6583    2.1172    5.9723 H         1 <0>         0.0599
     51 H21        -3.1654   -0.2137    5.3116 H         1 <0>         0.1366
     52 H22        -4.2695   -0.3717    6.6988 H         1 <0>         0.1422
     53 H23        -4.1248    3.8384    8.8250 H         1 <0>         0.0977
     54 H24        -3.2322    4.0467    7.2992 H         1 <0>         0.0611
     55 H25        -5.5019    4.9221    7.0248 H         1 <0>         0.0595
     56 H26        -5.3262    3.4443    6.0483 H         1 <0>         0.0459
     57 H27        -7.3189    3.4093    7.3651 H         1 <0>         0.3848
     58 H28        -2.3227   -1.4166   10.2743 H         1 <0>         0.3989
     59 H29        -1.3969    0.2111    6.8603 H         1 <0>         0.4191
@<TRIPOS>BOND
     1    1    2 1
     2    1   31 1
     3    1   32 1
     4    1   33 1
     5    2    3 1
     6    2   34 1
     7    2   35 1
     8    3    8 ar
     9    3    4 ar
    10    4    5 ar
    11    4   36 1
    12    5    6 ar
    13    5   37 1
    14    6    7 ar
    15    6    9 1
    16    7    8 ar
    17    7   38 1
    18    8   39 1
    19    9   10 2
    20    9   40 1
    21   10   19 1
    22   10   11 1
    23   11   12 2
    24   11   13 1
    25   13   18 ar
    26   13   14 ar
    27   14   15 ar
    28   14   41 1
    29   15   16 ar
    30   15   42 1
    31   16   17 ar
    32   16   30 1
    33   17   18 ar
    34   17   20 1
    35   18   19 1
    36   20   21 1
    37   20   43 1
    38   20   44 1
    39   21   26 1
    40   21   22 1
    41   21   59 1
    42   22   23 1
    43   22   45 1
    44   22   46 1
    45   23   24 1
    46   23   47 1
    47   23   48 1
    48   24   25 1
    49   24   27 1
    50   25   26 1
    51   25   49 1
    52   25   50 1
    53   26   51 1
    54   26   52 1
    55   27   28 1
    56   27   53 1
    57   27   54 1
    58   28   29 1
    59   28   55 1
    60   28   56 1
    61   29   57 1
    62   30   58 1
@<TRIPOS>MOLECULE
ZINC53698702
   56    58     0     0     0
SMALL
USER_CHARGES

@<TRIPOS>ATOM
      1 C1         -0.0187    1.5258    0.0104 C.3       1 <0>        -0.1516
      2 C2          0.0021   -0.0041    0.0020 C.3       1 <0>        -0.1098
      3 H1          0.5122   -0.3562   -0.8946 H         1 <0>         0.0935
      4 C3         -1.4343   -0.5350    0.0151 C.3       1 <0>        -0.1345
      5 C4         -1.4020   -2.0645    0.0857 C.3       1 <0>        -0.1440
      6 C5         -0.6129   -2.4960    1.3237 C.3       1 <0>        -0.0208
      7 N1          0.7584   -1.9796    1.2388 N.4       1 <0>        -0.3784
      8 C6          0.7401   -0.5119    1.2425 C.3       1 <0>        -0.0153
      9 C7          1.5335   -2.4611    2.3901 C.3       1 <0>         0.0510
     10 C8          2.9633   -1.9236    2.3030 C.3       1 <0>        -0.1799
     11 C9          0.8821   -1.9703    3.6846 C.3       1 <0>        -0.1773
     12 C10         1.5623   -3.9908    2.3817 C.3       1 <0>         0.0939
     13 N2          2.1860   -4.4607    1.1422 N.pl3     1 <0>        -1.1300
     14 S1          2.6900   -6.0328    1.0132 S.o2      1 <0>         2.6991
     15 O1          3.2193   -6.1834   -0.2969 O.2       1 <0>        -0.9345
     16 O2          3.4522   -6.3120    2.1796 O.2       1 <0>        -0.9269
     17 C11         1.2529   -7.0491    1.0956 C.ar      1 <0>        -0.7451
     18 C12         0.8809   -7.8083    0.0014 C.ar      1 <0>         0.0452
     19 C13        -0.2444   -8.6059    0.0634 C.ar      1 <0>        -0.1480
     20 C14        -1.0042   -8.6464    1.2256 C.ar      1 <0>         0.2592
     21 C15        -0.6305   -7.8837    2.3232 C.ar      1 <0>        -0.2059
     22 C16         0.5013   -7.0903    2.2581 C.ar      1 <0>         0.2175
     23 F1          0.8702   -6.3512    3.3272 F         1 <0>        -0.1206
     24 N3         -2.1428   -9.4555    1.2869 N.am      1 <0>        -0.6651
     25 C17        -2.3145  -10.4592    0.4072 C.2       1 <0>         0.5212
     26 O3         -3.3149  -11.1425    0.4653 O.2       1 <0>        -0.4962
     27 C18        -1.2799  -10.7435   -0.6480 C.3       1 <0>        -0.1435
     28 C19        -0.6515   -9.4343   -1.1274 C.3       1 <0>        -0.0808
     29 H2          1.0039    1.9031    0.0027 H         1 <0>         0.0688
     30 H3         -0.5459    1.8868   -0.8726 H         1 <0>         0.0782
     31 H4         -0.5289    1.8773    0.9072 H         1 <0>         0.0675
     32 H5         -1.9606   -0.1411    0.8845 H         1 <0>         0.0831
     33 H6         -1.9466   -0.2229   -0.8949 H         1 <0>         0.0953
     34 H7         -2.4205   -2.4474    0.1515 H         1 <0>         0.1132
     35 H8         -0.9208   -2.4601   -0.8088 H         1 <0>         0.0876
     36 H9         -1.0951   -2.1001    2.2175 H         1 <0>         0.1351
     37 H10        -0.5882   -3.5844    1.3771 H         1 <0>         0.1295
     38 H11         1.7630   -0.1355    1.2357 H         1 <0>         0.1351
     39 H12         0.2298   -0.1583    2.1385 H         1 <0>         0.1339
     40 H13         2.9428   -0.8338    2.3089 H         1 <0>         0.0888
     41 H14         3.5384   -2.2808    3.1572 H         1 <0>         0.1132
     42 H15         3.4274   -2.2732    1.3807 H         1 <0>         0.0835
     43 H16        -0.1365   -2.3532    3.7466 H         1 <0>         0.0857
     44 H17         1.4572   -2.3275    4.5388 H         1 <0>         0.1118
     45 H18         0.8616   -0.8805    3.6905 H         1 <0>         0.0906
     46 H19         2.1374   -4.3480    3.2360 H         1 <0>         0.1334
     47 H20         0.5437   -4.3737    2.4438 H         1 <0>         0.0934
     48 H21         2.3037   -3.8509    0.3971 H         1 <0>         0.4129
     49 H22         1.4709   -7.7772   -0.9026 H         1 <0>         0.1643
     50 H23        -1.2192   -7.9130    3.2282 H         1 <0>         0.1561
     51 H24        -2.8135   -9.2924    1.9684 H         1 <0>         0.4188
     52 H25        -0.5043  -11.3858   -0.2309 H         1 <0>         0.1126
     53 H26        -1.7517  -11.2486   -1.4909 H         1 <0>         0.1218
     54 H27        -1.3759   -8.8805   -1.7245 H         1 <0>         0.0935
     55 H28         0.2269   -9.6542   -1.7342 H         1 <0>         0.1048
     56 H29         1.1878   -2.3068    0.3863 H         1 <0>         0.4154
@<TRIPOS>BOND
     1    1    2 1
     2    1   29 1
     3    1   30 1
     4    1   31 1
     5    2    3 1
     6    2    8 1
     7    2    4 1
     8    4    5 1
     9    4   32 1
    10    4   33 1
    11    5    6 1
    12    5   34 1
    13    5   35 1
    14    6    7 1
    15    6   36 1
    16    6   37 1
    17    7    8 1
    18    7    9 1
    19    7   56 1
    20    8   38 1
    21    8   39 1
    22    9   10 1
    23    9   11 1
    24    9   12 1
    25   10   40 1
    26   10   41 1
    27   10   42 1
    28   11   43 1
    29   11   44 1
    30   11   45 1
    31   12   13 1
    32   12   46 1
    33   12   47 1
    34   13   14 1
    35   13   48 1
    36   14   15 2
    37   14   16 2
    38   14   17 1
    39   17   22 ar
    40   17   18 ar
    41   18   19 ar
    42   18   49 1
    43   19   28 1
    44   19   20 ar
    45   20   21 ar
    46   20   24 1
    47   21   22 ar
    48   21   50 1
    49   22   23 1
    50   24   25 am
    51   24   51 1
    52   25   26 2
    53   25   27 1
    54   27   28 1
    55   27   52 1
    56   27   53 1
    57   28   54 1
    58   28   55 1
@<TRIPOS>MOLECULE
ZINC63486397
   54    57     0     0     0
SMALL
USER_CHARGES

@<TRIPOS>ATOM
      1 C1         -0.0187    1.5258    0.0104 C.3       1 <0>        -0.1522
      2 C2          0.0021   -0.0041    0.0020 C.3       1 <0>        -0.0415
      3 H1         -1.0209   -0.3802    0.0098 H         1 <0>         0.1098
      4 C3          0.7048   -0.4888   -1.2410 C.ar      1 <0>        -0.1550
      5 C4         -0.0043   -0.5138   -2.4323 C.ar      1 <0>        -0.0615
      6 C5          0.5991   -0.9430   -3.5965 C.ar      1 <0>        -0.1575
      7 C6          1.9252   -1.3525   -3.5796 C.ar      1 <0>         0.1434
      8 C7          2.6362   -1.3316   -2.3917 C.ar      1 <0>        -0.1589
      9 C8          2.0251   -0.9026   -1.2189 C.ar      1 <0>         0.1385
     10 O1          2.7539   -0.9162   -0.0694 O.3       1 <0>        -0.2952
     11 C9          2.2226   -0.3124    1.0123 C.2       1 <0>         0.4931
     12 O2          2.8977    0.3548    1.7600 O.2       1 <0>        -0.4287
     13 C10         0.7398   -0.5099    1.2454 C.3       1 <0>        -0.1331
     14 H2          0.4252    0.0601    2.1196 H         1 <0>         0.1242
     15 C11         0.4410   -1.9954    1.4579 C.3       1 <0>        -0.0966
     16 C12         1.0792   -2.4616    2.7679 C.3       1 <0>        -0.1477
     17 C13         0.7850   -3.9247    2.9772 C.2       1 <0>         0.5215
     18 O3          0.1294   -4.5345    2.1591 O.2       1 <0>        -0.5260
     19 N1          1.2503   -4.5556    4.0735 N.am      1 <0>        -0.7382
     20 C14         0.9643   -5.9780    4.2769 C.3       1 <0>         0.1251
     21 C15         1.6025   -6.4442    5.5870 C.3       1 <0>        -0.1071
     22 C16         1.3082   -7.9073    5.7962 C.2       1 <0>         0.0764
     23 C17         2.1009   -8.9516    5.4646 C.ar      1 <0>        -0.1505
     24 C18         3.4235   -9.0343    4.8335 C.ar      1 <0>        -0.0641
     25 C19         3.9763  -10.2527    4.6247 C.ar      1 <0>         0.0840
     26 C20         3.3166  -11.4350    4.9961 C.ar      1 <0>         0.0200
     27 C21         2.1000  -11.4379    5.5798 C.ar      1 <0>        -0.1733
     28 C22         1.4271  -10.2133    5.8466 C.ar      1 <0>         0.3253
     29 N2          0.2630   -9.9587    6.3931 N.pl3     1 <0>        -0.5743
     30 C23         0.0696   -8.5047    6.4256 C.3       1 <0>         0.0596
     31 F1          5.1933  -10.3325    4.0436 F         1 <0>        -0.1105
     32 O4          2.5238   -1.7721   -4.7253 O.3       1 <0>        -0.4930
     33 H3          1.0039    1.9031    0.0027 H         1 <0>         0.0552
     34 H4         -0.5459    1.8868   -0.8726 H         1 <0>         0.0718
     35 H5         -0.5289    1.8773    0.9072 H         1 <0>         0.0712
     36 H6         -1.0361   -0.1955   -2.4490 H         1 <0>         0.1387
     37 H7          0.0398   -0.9607   -4.5202 H         1 <0>         0.1389
     38 H8          3.6682   -1.6497   -2.3761 H         1 <0>         0.1436
     39 H9         -0.6375   -2.1459    1.5054 H         1 <0>         0.0951
     40 H10         0.8521   -2.5709    0.6285 H         1 <0>         0.0828
     41 H11         2.1577   -2.3111    2.7205 H         1 <0>         0.0959
     42 H12         0.6682   -1.8861    3.5973 H         1 <0>         0.1061
     43 H13         1.7747   -4.0679    4.7278 H         1 <0>         0.4078
     44 H14        -0.1142   -6.1285    4.3244 H         1 <0>         0.0790
     45 H15         1.3753   -6.5535    3.4475 H         1 <0>         0.0791
     46 H16         2.6810   -6.2937    5.5395 H         1 <0>         0.1177
     47 H17         1.1914   -5.8687    6.4164 H         1 <0>         0.1217
     48 H18         3.9478   -8.1370    4.5399 H         1 <0>         0.1722
     49 H19         3.8025  -12.3808    4.8067 H         1 <0>         0.1753
     50 H20         1.6345  -12.3753    5.8460 H         1 <0>         0.1733
     51 H21        -0.0327   -8.1599    7.4545 H         1 <0>         0.1808
     52 H22        -0.8139   -8.2326    5.8480 H         1 <0>         0.1796
     53 H23         2.9548   -1.0655   -5.2254 H         1 <0>         0.3992
     54 H24        -0.3639  -10.6207    6.7241 H         1 <0>         0.4589
@<TRIPOS>BOND
     1    1    2 1
     2    1   33 1
     3    1   34 1
     4    1   35 1
     5    2    3 1
     6    2   13 1
     7    2    4 1
     8    4    9 ar
     9    4    5 ar
    10    5    6 ar
    11    5   36 1
    12    6    7 ar
    13    6   37 1
    14    7    8 ar
    15    7   32 1
    16    8    9 ar
    17    8   38 1
    18    9   10 1
    19   10   11 1
    20   11   12 2
    21   11   13 1
    22   13   14 1
    23   13   15 1
    24   15   16 1
    25   15   39 1
    26   15   40 1
    27   16   17 1
    28   16   41 1
    29   16   42 1
    30   17   18 2
    31   17   19 am
    32   19   20 1
    33   19   43 1
    34   20   21 1
    35   20   44 1
    36   20   45 1
    37   21   22 1
    38   21   46 1
    39   21   47 1
    40   22   30 1
    41   22   23 2
    42   23   28 ar
    43   23   24 ar
    44   24   25 ar
    45   24   48 1
    46   25   26 ar
    47   25   31 1
    48   26   27 ar
    49   26   49 1
    50   27   28 ar
    51   27   50 1
    52   28   29 2
    53   29   30 1
    54   29   54 1
    55   30   51 1
    56   30   52 1
    57   32   53 1
@<TRIPOS>MOLECULE
ZINC03864200
   39    42     0     0     0
SMALL
USER_CHARGES
3-[[5-(2-chlorophenyl)-2-furyl]methylene]-8-ethyl-2-imino-7-thia-1,5,9-triazabicyclo[4.3.0]nona-5,8-dien-4-one
@<TRIPOS>ATOM
      1 C1          0.3433   -2.7933   -1.9901 C.3       1 <0>        -0.1473
      2 C2          1.6586   -2.0131   -2.0346 C.3       1 <0>        -0.0304
      3 C3          1.4025   -0.5751   -1.6636 C.2       1 <0>         0.1280
      4 N1          0.2783   -0.0016   -1.3429 N.2       1 <0>        -0.2575
      5 N2          0.2246    1.3371   -1.0184 N.pl3     1 <0>        -0.4296
      6 C4         -0.9251    2.0367   -0.5934 C.2       1 <0>         0.4554
      7 N3         -1.9738    1.4483   -0.0776 N.2       1 <0>        -0.6151
      8 C5         -0.8287    3.5078   -0.7893 C.2       1 <0>        -0.2279
      9 C6         -1.9416    4.2789   -1.0902 C.2       1 <0>         0.1048
     10 C7         -3.1637    3.6585   -1.3966 C.2       1 <0>        -0.0353
     11 C8         -4.3790    4.3019   -1.5835 C.2       1 <0>        -0.1184
     12 C9         -5.3190    3.3125   -1.8671 C.2       1 <0>        -0.1902
     13 C10        -4.6537    2.1045   -1.8448 C.2       1 <0>         0.0656
     14 O1         -3.3587    2.3330   -1.5662 O.3       1 <0>        -0.1171
     15 C11        -5.2605    0.7830   -2.0925 C.ar      1 <0>        -0.0219
     16 C12        -4.6745   -0.0991   -3.0044 C.ar      1 <0>        -0.0804
     17 C13        -5.2473   -1.3327   -3.2310 C.ar      1 <0>        -0.1137
     18 C14        -6.4002   -1.6991   -2.5580 C.ar      1 <0>        -0.0915
     19 C15        -6.9869   -0.8322   -1.6537 C.ar      1 <0>        -0.1092
     20 C16        -6.4219    0.4043   -1.4118 C.ar      1 <0>        -0.0091
     21 Cl1        -7.1551    1.4884   -0.2713 Cl        1 <0>        -0.0497
     22 C17         0.5183    4.1058   -0.6456 C.2       1 <0>         0.5523
     23 O2          0.6555    5.2764   -0.3267 O.2       1 <0>        -0.4473
     24 N4          1.5889    3.3196   -0.8778 N.2       1 <0>        -0.5408
     25 C18         1.4086    2.0398   -1.0852 C.2       1 <0>         0.3958
     26 S1          2.5646    0.7785   -1.5508 S.3       1 <0>         0.0875
     27 H1         -0.0732   -2.7463   -0.9839 H         1 <0>         0.0646
     28 H2         -0.3626   -2.3561   -2.6963 H         1 <0>         0.0646
     29 H3          0.5285   -3.8334   -2.2585 H         1 <0>         0.0765
     30 H4          2.0751   -2.0601   -3.0408 H         1 <0>         0.1124
     31 H5          2.3645   -2.4503   -1.3284 H         1 <0>         0.1129
     32 H6         -1.9859    0.4842    0.0283 H         1 <0>         0.3573
     33 H7         -1.8684    5.3564   -1.0888 H         1 <0>         0.1802
     34 H8         -4.5614    5.3645   -1.5209 H         1 <0>         0.1659
     35 H9         -6.3697    3.4633   -2.0666 H         1 <0>         0.1585
     36 H10        -3.7749    0.1847   -3.5302 H         1 <0>         0.1327
     37 H11        -4.7949   -2.0152   -3.9353 H         1 <0>         0.1363
     38 H12        -6.8437   -2.6669   -2.7397 H         1 <0>         0.1388
     39 H13        -7.8861   -1.1251   -1.1321 H         1 <0>         0.1423
@<TRIPOS>BOND
     1    1    2 1
     2    1   27 1
     3    1   28 1
     4    1   29 1
     5    2    3 1
     6    2   30 1
     7    2   31 1
     8    3   26 1
     9    3    4 2
    10    4    5 1
    11    5   25 1
    12    5    6 1
    13    6    7 2
    14    6    8 1
    15    7   32 1
    16    8    9 2
    17    8   22 1
    18    9   10 1
    19    9   33 1
    20   10   14 1
    21   10   11 2
    22   11   12 1
    23   11   34 1
    24   12   13 2
    25   12   35 1
    26   13   14 1
    27   13   15 1
    28   15   20 ar
    29   15   16 ar
    30   16   17 ar
    31   16   36 1
    32   17   18 ar
    33   17   37 1
    34   18   19 ar
    35   18   38 1
    36   19   20 ar
    37   19   39 1
    38   20   21 1
    39   22   23 2
    40   22   24 1
    41   24   25 2
    42   25   26 1
@<TRIPOS>MOLECULE
ZINC12022578
   43    45     0     0     0
SMALL
USER_CHARGES
N-(3,5-difluorophenyl)-4-(4,4-dimethyl-1,1,3-trioxo-1,2-thiazolidin-2-yl)benzamide
@<TRIPOS>ATOM
      1 C1         -7.7309    9.3826    0.9012 C.3       1 <0>        -0.1307
      2 C2         -7.7533    7.8871    1.2232 C.3       1 <0>        -0.0792
      3 C3         -8.6312    7.1422    0.1829 C.3       1 <0>        -0.5724
      4 S1         -7.6590    5.5865    0.0447 S.o2      1 <0>         2.5339
      5 O1         -7.4609    5.2314   -1.3169 O.2       1 <0>        -0.9138
      6 O2         -8.0918    4.6309    1.0031 O.2       1 <0>        -0.9136
      7 N1         -6.1741    6.1348    0.5904 N.am      1 <0>        -0.8729
      8 C4         -6.3617    7.3337    1.1624 C.2       1 <0>         0.4958
      9 O3         -5.4260    7.9574    1.6166 O.2       1 <0>        -0.4514
     10 C5         -4.9583    5.4616    0.4760 C.ar      1 <0>         0.1970
     11 C6         -3.7656    6.1781    0.4751 C.ar      1 <0>        -0.1255
     12 C7         -2.5635    5.5166    0.3627 C.ar      1 <0>        -0.0260
     13 C8         -2.5421    4.1237    0.2494 C.ar      1 <0>        -0.1492
     14 C9         -3.7423    3.4076    0.2454 C.ar      1 <0>        -0.0508
     15 C10        -4.9406    4.0750    0.3634 C.ar      1 <0>        -0.1541
     16 C11        -1.2555    3.4113    0.1283 C.2       1 <0>         0.5669
     17 O4         -0.2123    4.0361    0.1269 O.2       1 <0>        -0.5054
     18 N2         -1.2366    2.0681    0.0192 N.am      1 <0>        -0.6686
     19 C12        -0.0165    1.3851    0.0021 C.ar      1 <0>         0.2057
     20 C13         1.0901    1.9537   -0.6146 C.ar      1 <0>        -0.1689
     21 C14         2.2949    1.2740   -0.6350 C.ar      1 <0>         0.1534
     22 C15         2.3976    0.0272   -0.0413 C.ar      1 <0>        -0.2059
     23 C16         1.2952   -0.5419    0.5739 C.ar      1 <0>         0.1532
     24 C17         0.0887    0.1346    0.5969 C.ar      1 <0>        -0.1917
     25 F1          1.3981   -1.7584    1.1524 F         1 <0>        -0.1256
     26 F2          3.3718    1.8268   -1.2348 F         1 <0>        -0.1245
     27 C18        -8.3234    7.6713    2.6265 C.3       1 <0>        -0.1538
     28 H1         -8.7465    9.7770    0.9364 H         1 <0>         0.0854
     29 H2         -7.1136    9.9028    1.6336 H         1 <0>         0.0830
     30 H3         -7.3169    9.5335   -0.0957 H         1 <0>         0.0694
     31 H4         -8.6656    7.6770   -0.7662 H         1 <0>         0.1629
     32 H5         -9.6332    6.9537    0.5682 H         1 <0>         0.1681
     33 H6         -3.7828    7.2544    0.5622 H         1 <0>         0.1548
     34 H7         -1.6381    6.0733    0.3617 H         1 <0>         0.1504
     35 H8         -3.7295    2.3315    0.1539 H         1 <0>         0.1400
     36 H9         -5.8682    3.5219    0.3645 H         1 <0>         0.1352
     37 H10        -2.0694    1.5752   -0.0475 H         1 <0>         0.4169
     38 H11         1.0103    2.9259   -1.0781 H         1 <0>         0.1601
     39 H12         3.3388   -0.5023   -0.0583 H         1 <0>         0.1517
     40 H13        -0.7706   -0.3092    1.0774 H         1 <0>         0.1479
     41 H14        -8.3305    6.6058    2.8560 H         1 <0>         0.0743
     42 H15        -7.7046    8.1957    3.3547 H         1 <0>         0.0856
     43 H16        -9.3414    8.0588    2.6686 H         1 <0>         0.0925
@<TRIPOS>BOND
     1    1    2 1
     2    1   28 1
     3    1   29 1
     4    1   30 1
     5    2    8 1
     6    2    3 1
     7    2   27 1
     8    3    4 1
     9    3   31 1
    10    3   32 1
    11    4    5 2
    12    4    6 2
    13    4    7 1
    14    7    8 am
    15    7   10 1
    16    8    9 2
    17   10   15 ar
    18   10   11 ar
    19   11   12 ar
    20   11   33 1
    21   12   13 ar
    22   12   34 1
    23   13   14 ar
    24   13   16 1
    25   14   15 ar
    26   14   35 1
    27   15   36 1
    28   16   17 2
    29   16   18 am
    30   18   19 1
    31   18   37 1
    32   19   24 ar
    33   19   20 ar
    34   20   21 ar
    35   20   38 1
    36   21   22 ar
    37   21   26 1
    38   22   23 ar
    39   22   39 1
    40   23   24 ar
    41   23   25 1
    42   24   40 1
    43   27   41 1
    44   27   42 1
    45   27   43 1
@<TRIPOS>MOLECULE
ZINC22059469
   51    54     0     0     0
SMALL
USER_CHARGES
2-[(4R)-2,5-dioxospiro[imidazolidine-4,1'-indane]-1-yl]-N-ethyl-N-(o-tolyl)acetamide
@<TRIPOS>ATOM
      1 C1         -1.9133    8.8116    5.0587 C.3       1 <0>        -0.1781
      2 C2         -1.2781    7.4303    5.2306 C.3       1 <0>         0.0992
      3 N1         -1.8673    6.4984    4.2659 N.am      1 <0>        -0.5671
      4 C3         -2.9827    5.7331    4.6240 C.ar      1 <0>         0.1343
      5 C4         -4.2617    6.1853    4.3262 C.ar      1 <0>        -0.1016
      6 C5         -5.3604    5.4277    4.6810 C.ar      1 <0>        -0.1187
      7 C6         -5.1882    4.2198    5.3321 C.ar      1 <0>        -0.1088
      8 C7         -3.9163    3.7670    5.6304 C.ar      1 <0>        -0.1149
      9 C8         -2.8130    4.5172    5.2727 C.ar      1 <0>        -0.0750
     10 C9         -1.4268    4.0195    5.5917 C.3       1 <0>        -0.1134
     11 C10        -1.3351    6.3782    3.0336 C.2       1 <0>         0.5068
     12 O1         -1.8229    5.6066    2.2349 O.2       1 <0>        -0.5104
     13 C11        -0.1338    7.2024    2.6479 C.3       1 <0>         0.0986
     14 N2          0.2496    6.8911    1.2687 N.am      1 <0>        -0.5643
     15 C12         1.1222    5.9193    0.9239 C.2       1 <0>         0.5434
     16 O2          1.7161    5.1665    1.6657 O.2       1 <0>        -0.4528
     17 C13         1.1994    5.9712   -0.5796 C.3       1 <0>         0.1529
     18 C14         2.6309    6.2528   -1.0534 C.3       1 <0>        -0.1104
     19 C15         3.1614    4.8322   -1.3510 C.3       1 <0>        -0.0810
     20 C16         1.9306    4.0044   -1.6573 C.ar      1 <0>        -0.0679
     21 C17         0.7991    4.6613   -1.2024 C.ar      1 <0>        -0.1128
     22 C18        -0.4460    4.0786   -1.3701 C.ar      1 <0>        -0.0745
     23 C19        -0.5633    2.8507   -1.9910 C.ar      1 <0>        -0.1219
     24 C20         0.5658    2.1978   -2.4480 C.ar      1 <0>        -0.0993
     25 C21         1.8097    2.7747   -2.2804 C.ar      1 <0>        -0.1103
     26 N3          0.2898    7.0530   -0.9585 N.am      1 <0>        -0.7233
     27 C22        -0.2218    7.5344    0.1925 C.2       1 <0>         0.7194
     28 O3         -1.0210    8.4484    0.2472 O.2       1 <0>        -0.5381
     29 H1         -1.4709    9.5113    5.7830 H         1 <0>         0.0757
     30 H2         -2.9972    8.7409    5.2322 H         1 <0>         0.0642
     31 H3         -1.7284    9.1756    4.0373 H         1 <0>         0.0612
     32 H4         -0.1942    7.5010    5.0571 H         1 <0>         0.0845
     33 H5         -1.4629    7.0662    6.2520 H         1 <0>         0.0892
     34 H6         -4.3968    7.1287    3.8181 H         1 <0>         0.1227
     35 H7         -6.3552    5.7787    4.4494 H         1 <0>         0.1267
     36 H8         -6.0491    3.6291    5.6085 H         1 <0>         0.1261
     37 H9         -3.7852    2.8234    6.1392 H         1 <0>         0.1270
     38 H10        -1.4947    3.0474    6.1021 H         1 <0>         0.0687
     39 H11        -0.9192    4.7429    6.2467 H         1 <0>         0.0690
     40 H12        -0.8547    3.9049    4.6592 H         1 <0>         0.0680
     41 H13        -0.3816    8.2712    2.7272 H         1 <0>         0.1321
     42 H14         0.7030    6.9690    3.3227 H         1 <0>         0.1284
     43 H15         2.6021    6.8960   -1.9453 H         1 <0>         0.0979
     44 H16         3.1889    6.7607   -0.2529 H         1 <0>         0.0877
     45 H17         3.8474    4.8695   -2.2100 H         1 <0>         0.0892
     46 H18         3.6973    4.4489   -0.4702 H         1 <0>         0.0941
     47 H19        -1.3300    4.5891   -1.0174 H         1 <0>         0.1210
     48 H20        -1.5368    2.4010   -2.1196 H         1 <0>         0.1283
     49 H21         0.4758    1.2384   -2.9357 H         1 <0>         0.1292
     50 H22         2.6918    2.2637   -2.6370 H         1 <0>         0.1265
     51 H23         0.1524    7.3099   -2.0192 H         1 <0>         0.4724
@<TRIPOS>BOND
     1    1    2 1
     2    1   29 1
     3    1   30 1
     4    1   31 1
     5    2    3 1
     6    2   32 1
     7    2   33 1
     8    3    4 1
     9    3   11 am
    10    4    9 ar
    11    4    5 ar
    12    5    6 ar
    13    5   34 1
    14    6    7 ar
    15    6   35 1
    16    7    8 ar
    17    7   36 1
    18    8    9 ar
    19    8   37 1
    20    9   10 1
    21   10   38 1
    22   10   39 1
    23   10   40 1
    24   11   12 2
    25   11   13 1
    26   13   14 1
    27   13   41 1
    28   13   42 1
    29   14   27 am
    30   14   15 am
    31   15   16 2
    32   15   17 1
    33   17   21 1
    34   17   18 1
    35   17   26 1
    36   18   19 1
    37   18   43 1
    38   18   44 1
    39   19   20 1
    40   19   45 1
    41   19   46 1
    42   20   25 ar
    43   20   21 ar
    44   21   22 ar
    45   22   23 ar
    46   22   47 1
    47   23   24 ar
    48   23   48 1
    49   24   25 ar
    50   24   49 1
    51   25   50 1
    52   26   27 am
    53   26   51 1
    54   27   28 2
@<TRIPOS>MOLECULE
ZINC51205320
   49    51     0     0     0
SMALL
USER_CHARGES

@<TRIPOS>ATOM
      1 C1         -2.3932   -9.7670    2.2914 C.3       1 <0>        -0.1259
      2 C2         -2.2123   -8.3848    1.7189 C.ar      1 <0>        -0.0121
      3 C3         -2.0210   -8.2191    0.3599 C.ar      1 <0>        -0.1526
      4 C4         -1.8549   -6.9513   -0.1653 C.ar      1 <0>         0.0399
      5 C5         -1.8807   -5.8490    0.6685 C.ar      1 <0>        -0.6952
      6 C6         -2.0729   -6.0145    2.0273 C.ar      1 <0>         0.0273
      7 C7         -2.2432   -7.2821    2.5520 C.ar      1 <0>        -0.1548
      8 C8         -2.1005   -4.8128    2.9363 C.3       1 <0>        -0.1419
      9 S1         -1.6679   -4.2330   -0.0008 S.o2      1 <0>         2.6655
     10 O1         -1.9870   -4.3205   -1.3827 O.2       1 <0>        -0.9118
     11 O2         -2.3335   -3.3379    0.8796 O.2       1 <0>        -0.9397
     12 N1         -0.0539   -3.8738    0.0904 N.am      1 <0>        -0.9451
     13 C9          0.5079   -3.3368    1.3323 C.3       1 <0>         0.0443
     14 C10         0.7428   -4.0756   -0.9778 C.2       1 <0>         0.5230
     15 O3          0.2628   -4.4281   -2.0343 O.2       1 <0>        -0.4443
     16 C11         2.2300   -3.8631   -0.8594 C.3       1 <0>        -0.0620
     17 H1          2.4227   -2.9444   -0.3052 H         1 <0>         0.1307
     18 C12         2.8563   -5.0454   -0.1191 C.3       1 <0>        -0.1351
     19 C13         2.8433   -6.2661   -0.9994 C.2       1 <0>         0.5181
     20 O4          2.6695   -7.3598   -0.5048 O.2       1 <0>        -0.5164
     21 N2          3.0217   -6.1582   -2.3288 N.am      1 <0>        -0.6581
     22 C14         3.2064   -4.9044   -2.9195 C.ar      1 <0>         0.1800
     23 C15         2.8328   -3.7547   -2.2358 C.ar      1 <0>        -0.1181
     24 C16         3.0151   -2.5164   -2.8181 C.ar      1 <0>        -0.0712
     25 C17         3.5685   -2.4208   -4.0822 C.ar      1 <0>        -0.1393
     26 C18         3.9408   -3.5636   -4.7656 C.ar      1 <0>        -0.0774
     27 C19         3.7615   -4.8051   -4.1881 C.ar      1 <0>        -0.1511
     28 C20        -1.6454   -6.7708   -1.6467 C.3       1 <0>        -0.1575
     29 H2         -3.4524  -10.0244    2.2914 H         1 <0>         0.0809
     30 H3         -1.8444  -10.4866    1.6839 H         1 <0>         0.0739
     31 H4         -2.0138   -9.7896    3.3130 H         1 <0>         0.0740
     32 H5         -2.0009   -9.0804   -0.2915 H         1 <0>         0.1321
     33 H6         -2.3971   -7.4111    3.6131 H         1 <0>         0.1335
     34 H7         -3.1004   -4.3789    2.9347 H         1 <0>         0.0984
     35 H8         -1.8383   -5.1176    3.9495 H         1 <0>         0.0784
     36 H9         -1.3827   -4.0729    2.5823 H         1 <0>         0.0742
     37 H10         0.8415   -4.1589    1.9655 H         1 <0>         0.0818
     38 H11         1.3547   -2.6914    1.0987 H         1 <0>         0.0984
     39 H12        -0.2543   -2.7605    1.8566 H         1 <0>         0.1065
     40 H13         3.8848   -4.8021    0.1472 H         1 <0>         0.1261
     41 H14         2.2868   -5.2472    0.7881 H         1 <0>         0.1157
     42 H15         3.0226   -6.9557   -2.8810 H         1 <0>         0.4148
     43 H16         2.7253   -1.6221   -2.2866 H         1 <0>         0.1302
     44 H17         3.7098   -1.4512   -4.5366 H         1 <0>         0.1296
     45 H18         4.3724   -3.4852   -5.7525 H         1 <0>         0.1314
     46 H19         4.0526   -5.6974   -4.7224 H         1 <0>         0.1312
     47 H20        -2.6002   -6.5516   -2.1247 H         1 <0>         0.0933
     48 H21        -0.9552   -5.9447   -1.8181 H         1 <0>         0.1079
     49 H22        -1.2293   -7.6855   -2.0689 H         1 <0>         0.0682
@<TRIPOS>BOND
     1    1    2 1
     2    1   29 1
     3    1   30 1
     4    1   31 1
     5    2    7 ar
     6    2    3 ar
     7    3    4 ar
     8    3   32 1
     9    4    5 ar
    10    4   28 1
    11    5    6 ar
    12    5    9 1
    13    6    7 ar
    14    6    8 1
    15    7   33 1
    16    8   34 1
    17    8   35 1
    18    8   36 1
    19    9   10 2
    20    9   11 2
    21    9   12 1
    22   12   13 1
    23   12   14 am
    24   13   37 1
    25   13   38 1
    26   13   39 1
    27   14   15 2
    28   14   16 1
    29   16   17 1
    30   16   23 1
    31   16   18 1
    32   18   19 1
    33   18   40 1
    34   18   41 1
    35   19   20 2
    36   19   21 am
    37   21   22 1
    38   21   42 1
    39   22   27 ar
    40   22   23 ar
    41   23   24 ar
    42   24   25 ar
    43   24   43 1
    44   25   26 ar
    45   25   44 1
    46   26   27 ar
    47   26   45 1
    48   27   46 1
    49   28   47 1
    50   28   48 1
    51   28   49 1
@<TRIPOS>MOLECULE
ZINC63596791
   35    38     0     0     0
SMALL
USER_CHARGES

@<TRIPOS>ATOM
      1 C1         -0.0162    1.3409    0.0094 C.2       1 <0>        -0.2193
      2 C2          1.3313    1.7689   -0.0012 C.2       1 <0>        -0.1734
      3 C3          2.0923    0.6599   -0.0144 C.2       1 <0>        -0.0507
      4 O1          1.2819   -0.4111   -0.0124 O.3       1 <0>        -0.1698
      5 C4          0.0021   -0.0041    0.0020 C.2       1 <0>        -0.0197
      6 C5          3.5989    0.6249   -0.0294 C.3       1 <0>         0.2053
      7 N1          4.1006    0.6065    1.3469 N.am      1 <0>        -0.7090
      8 C6          5.4277    0.5745    1.5799 C.2       1 <0>         0.5502
      9 O2          6.2065    0.5610    0.6503 O.2       1 <0>        -0.4952
     10 C7          5.9439    0.5555    2.9956 C.3       1 <0>        -0.0804
     11 H1          5.2332    0.0708    3.6650 H         1 <0>         0.1927
     12 C8          7.3244   -0.1115    3.0743 C.2       1 <0>         0.4535
     13 N2          7.5180   -1.3760    2.7416 N.2       1 <0>        -0.5290
     14 C9          8.7077   -1.9871    2.7987 C.2       1 <0>         0.5449
     15 O3          8.8356   -3.1564    2.4804 O.2       1 <0>        -0.4271
     16 C10         9.8568   -1.1886    3.2616 C.ar      1 <0>        -0.1735
     17 C11        11.1397   -1.7240    3.3590 C.ar      1 <0>        -0.0279
     18 C12        12.1720   -0.9211    3.7995 C.ar      1 <0>        -0.0415
     19 C13        11.9361    0.4037    4.1420 C.ar      1 <0>        -0.0508
     20 C14        10.6688    0.9411    4.0484 C.ar      1 <0>        -0.1552
     21 C15         9.6202    0.1448    3.6060 C.ar      1 <0>         0.1274
     22 N3          8.3217    0.6840    3.5066 N.pl3     1 <0>        -0.4533
     23 C16         8.0934    1.9902    3.8448 C.2       1 <0>         0.2469
     24 S1          9.2374    3.1327    4.4080 S.2       1 <0>        -0.2408
     25 S2          6.3533    2.2474    3.5753 S.3       1 <0>         0.0808
     26 Cl1        13.7763   -1.5719    3.9267 Cl        1 <0>        -0.0439
     27 H2         -0.8920    1.9726    0.0252 H         1 <0>         0.1533
     28 H3          1.6822    2.7903    0.0004 H         1 <0>         0.1533
     29 H4         -0.8653   -0.6475    0.0072 H         1 <0>         0.2076
     30 H5          3.9364   -0.2706   -0.5512 H         1 <0>         0.0955
     31 H6          3.9777    1.5089   -0.5424 H         1 <0>         0.1087
     32 H7          3.4778    0.6173    2.0904 H         1 <0>         0.4103
     33 H8         11.3237   -2.7545    3.0933 H         1 <0>         0.1612
     34 H9         12.7535    1.0201    4.4860 H         1 <0>         0.1559
     35 H10        10.4935    1.9723    4.3171 H         1 <0>         0.2129
@<TRIPOS>BOND
     1    1    5 2
     2    1    2 1
     3    1   27 1
     4    2    3 2
     5    2   28 1
     6    3    4 1
     7    3    6 1
     8    4    5 1
     9    5   29 1
    10    6    7 1
    11    6   30 1
    12    6   31 1
    13    7    8 am
    14    7   32 1
    15    8    9 2
    16    8   10 1
    17   10   11 1
    18   10   25 1
    19   10   12 1
    20   12   22 1
    21   12   13 2
    22   13   14 1
    23   14   15 2
    24   14   16 1
    25   16   21 ar
    26   16   17 ar
    27   17   18 ar
    28   17   33 1
    29   18   19 ar
    30   18   26 1
    31   19   20 ar
    32   19   34 1
    33   20   21 ar
    34   20   35 1
    35   21   22 1
    36   22   23 1
    37   23   24 2
    38   23   25 1
@<TRIPOS>MOLECULE
ZINC04236853
   66    69     0     0     0
SMALL
USER_CHARGES
2-[hydroxy-(methoxymethyl)-dimethyl-BLAHyl]-1-morpholino-ethanone
@<TRIPOS>ATOM
      1 C1         -1.6786    0.9142    1.3268 C.3       1 <0>        -0.1587
      2 C2         -0.4704    1.8698    1.3844 C.3       1 <0>        -0.0393
      3 C3          0.2974    1.7826    0.0667 C.3       1 <0>        -0.1056
      4 C4         -0.4993    2.3885   -1.0860 C.3       1 <0>        -0.1519
      5 C5         -0.7965    3.8553   -0.7771 C.3       1 <0>         0.1040
      6 H1          0.1475    4.3885   -0.6125 H         1 <0>         0.1072
      7 C6         -1.6494    3.9365    0.4935 C.3       1 <0>        -0.1109
      8 C7         -0.9293    3.2894    1.6717 C.3       1 <0>        -0.0476
      9 H2         -1.6266    3.2716    2.5226 H         1 <0>         0.0734
     10 C8          0.2572    4.1811    2.0557 C.3       1 <0>        -0.1162
     11 C9          1.0239    3.5961    3.2434 C.3       1 <0>        -0.1545
     12 C10         1.5707    2.2267    2.8489 C.3       1 <0>         0.1117
     13 H3          2.2381    2.3367    1.9903 H         1 <0>         0.0539
     14 C11         0.4196    1.2992    2.4973 C.3       1 <0>        -0.0561
     15 H4          0.8385    0.3484    2.1310 H         1 <0>         0.0867
     16 C12        -0.4295    0.9945    3.7318 C.3       1 <0>        -0.1371
     17 C13         0.3555    0.1243    4.6791 C.2       1 <0>         0.5217
     18 O1          1.4131   -0.3543    4.3278 O.2       1 <0>        -0.5020
     19 N1         -0.1176   -0.1220    5.9169 N.am      1 <0>        -0.6261
     20 C14        -1.3950    0.4526    6.3678 C.3       1 <0>         0.0744
     21 C15        -2.2528   -0.6831    6.9485 C.3       1 <0>         0.0462
     22 O2         -1.4925   -1.3892    7.9320 O.3       1 <0>        -0.3790
     23 C16        -0.3228   -2.0306    7.4180 C.3       1 <0>         0.0472
     24 C17         0.6311   -0.9685    6.8594 C.3       1 <0>         0.0807
     25 O3          2.3152    1.6804    3.9425 O.3       1 <0>        -0.5410
     26 C18        -3.0194    3.3253    0.1938 C.3       1 <0>         0.0591
     27 O4         -3.5970    4.1254   -0.8620 O.3       1 <0>        -0.3818
     28 C19        -2.8398    4.0265   -2.0748 C.3       1 <0>         0.2532
     29 H5         -2.8442    2.9908   -2.4161 H         1 <0>         0.0653
     30 O5         -1.4993    4.4573   -1.8613 O.3       1 <0>        -0.3775
     31 C20        -3.4950    4.9081   -3.1428 C.3       1 <0>         0.0753
     32 O6         -3.5138    6.2649   -2.6946 O.3       1 <0>        -0.3703
     33 C21        -4.1075    7.1753   -3.6223 C.3       1 <0>         0.0293
     34 C22        -1.8971    5.4275    0.7974 C.3       1 <0>        -0.1425
     35 H6         -1.3327   -0.1150    1.4222 H         1 <0>         0.0618
     36 H7         -2.3633    1.1446    2.1430 H         1 <0>         0.0610
     37 H8         -2.1942    1.0375    0.3744 H         1 <0>         0.0619
     38 H9          0.5062    0.7317   -0.1570 H         1 <0>         0.0694
     39 H10         1.2500    2.3095    0.1632 H         1 <0>         0.0677
     40 H11         0.0963    2.3298   -2.0018 H         1 <0>         0.0737
     41 H12        -1.4241    1.8406   -1.2385 H         1 <0>         0.0658
     42 H13         0.9318    4.2778    1.2045 H         1 <0>         0.0653
     43 H14        -0.0808    5.1717    2.3652 H         1 <0>         0.0726
     44 H15         1.8586    4.2592    3.4885 H         1 <0>         0.0630
     45 H16         0.3722    3.5206    4.1077 H         1 <0>         0.0694
     46 H17        -0.6942    1.9272    4.2299 H         1 <0>         0.0883
     47 H18        -1.3379    0.4741    3.4286 H         1 <0>         0.0984
     48 H19        -1.2089    1.2047    7.1344 H         1 <0>         0.0760
     49 H20        -1.9110    0.9087    5.5229 H         1 <0>         0.0921
     50 H21        -2.5425   -1.3680    6.1516 H         1 <0>         0.0560
     51 H22        -3.1463   -0.2638    7.4110 H         1 <0>         0.1061
     52 H23        -0.6055   -2.7204    6.6228 H         1 <0>         0.0551
     53 H24         0.1726   -2.5800    8.2185 H         1 <0>         0.1063
     54 H25         1.4575   -1.4540    6.3402 H         1 <0>         0.1007
     55 H26         1.0182   -0.3569    7.6743 H         1 <0>         0.0718
     56 H27         3.0685    2.2220    4.2150 H         1 <0>         0.3648
     57 H28        -2.9314    2.3210   -0.2043 H         1 <0>         0.0645
     58 H29        -3.6559    3.3620    1.0679 H         1 <0>         0.1002
     59 H30        -2.9258    4.8395   -4.0698 H         1 <0>         0.0697
     60 H31        -4.5161    4.5690   -3.3175 H         1 <0>         0.0703
     61 H32        -4.0831    8.1833   -3.2083 H         1 <0>         0.0872
     62 H33        -3.5510    7.1538   -4.5593 H         1 <0>         0.0409
     63 H34        -5.1413    6.8833   -3.8069 H         1 <0>         0.0408
     64 H35        -2.4210    5.8870   -0.0408 H         1 <0>         0.0797
     65 H36        -2.5031    5.5188    1.6988 H         1 <0>         0.0518
     66 H37        -0.9423    5.9310    0.9490 H         1 <0>         0.0564
@<TRIPOS>BOND
     1    1    2 1
     2    1   35 1
     3    1   36 1
     4    1   37 1
     5    2    8 1
     6    2   14 1
     7    2    3 1
     8    3    4 1
     9    3   38 1
    10    3   39 1
    11    4    5 1
    12    4   40 1
    13    4   41 1
    14    5    6 1
    15    5   30 1
    16    5    7 1
    17    7    8 1
    18    7   26 1
    19    7   34 1
    20    8    9 1
    21    8   10 1
    22   10   11 1
    23   10   42 1
    24   10   43 1
    25   11   12 1
    26   11   44 1
    27   11   45 1
    28   12   13 1
    29   12   14 1
    30   12   25 1
    31   14   15 1
    32   14   16 1
    33   16   17 1
    34   16   46 1
    35   16   47 1
    36   17   18 2
    37   17   19 am
    38   19   24 1
    39   19   20 1
    40   20   21 1
    41   20   48 1
    42   20   49 1
    43   21   22 1
    44   21   50 1
    45   21   51 1
    46   22   23 1
    47   23   24 1
    48   23   52 1
    49   23   53 1
    50   24   54 1
    51   24   55 1
    52   25   56 1
    53   26   27 1
    54   26   57 1
    55   26   58 1
    56   27   28 1
    57   28   29 1
    58   28   30 1
    59   28   31 1
    60   31   32 1
    61   31   59 1
    62   31   60 1
    63   32   33 1
    64   33   61 1
    65   33   62 1
    66   33   63 1
    67   34   64 1
    68   34   65 1
    69   34   66 1
@<TRIPOS>MOLECULE
ZINC07003169
   44    46     0     0     0
SMALL
USER_CHARGES
N-(4-fluoro-2-methyl-phenyl)-3-(3-methyl-2-oxo-benzooxazol-6-yl)sulfonyl-propanamide
@<TRIPOS>ATOM
      1 C1         -0.6439    2.8181    6.1726 C.3       1 <0>        -0.1187
      2 C2          0.0917    1.5070    6.0684 C.ar      1 <0>        -0.0856
      3 C3          0.6935    0.9615    7.1857 C.ar      1 <0>        -0.1342
      4 C4          1.3746   -0.2400    7.0892 C.ar      1 <0>         0.0870
      5 C5          1.4493   -0.9003    5.8741 C.ar      1 <0>        -0.1372
      6 C6          0.8446   -0.3609    4.7559 C.ar      1 <0>        -0.0985
      7 C7          0.1608    0.8441    4.8506 C.ar      1 <0>         0.1338
      8 N1         -0.4531    1.3927    3.7179 N.am      1 <0>        -0.6669
      9 C8         -0.0020    1.0775    2.4876 C.2       1 <0>         0.5228
     10 O1          0.9961    0.3998    2.3629 O.2       1 <0>        -0.5086
     11 C9         -0.7378    1.5671    1.2669 C.3       1 <0>        -0.1369
     12 C10        -0.0227    1.0726    0.0080 C.3       1 <0>        -0.5970
     13 S1         -0.9083    1.6619   -1.4614 S.o2      1 <0>         2.5050
     14 O2         -2.1779    1.0303   -1.5537 O.2       1 <0>        -0.9248
     15 O3         -0.7922    3.0741   -1.5693 O.2       1 <0>        -0.9241
     16 C11         0.0087    1.0298   -2.8267 C.ar      1 <0>        -0.6574
     17 C12         1.0371    1.7788   -3.3716 C.ar      1 <0>        -0.0005
     18 C13         1.7640    1.2878   -4.4387 C.ar      1 <0>        -0.1192
     19 C14         1.4538    0.0462   -4.9711 C.ar      1 <0>         0.1273
     20 C15         0.4142   -0.7070   -4.4261 C.ar      1 <0>         0.0151
     21 C16        -0.3059   -0.2084   -3.3517 C.ar      1 <0>         0.0240
     22 O4          0.3375   -1.8597   -5.1353 O.3       1 <0>        -0.2290
     23 C17         1.2799   -1.8530   -6.0910 C.2       1 <0>         0.6370
     24 O5          1.4715   -2.7452   -6.8947 O.2       1 <0>        -0.4721
     25 N2          1.9815   -0.7043   -6.0215 N.am      1 <0>        -0.5495
     26 C18         3.0952   -0.3153   -6.8901 C.3       1 <0>         0.0923
     27 F1          1.9669   -0.7694    8.1820 F         1 <0>        -0.1385
     28 H1         -1.6880    2.6301    6.4228 H         1 <0>         0.0782
     29 H2         -0.1881    3.4296    6.9513 H         1 <0>         0.0774
     30 H3         -0.5878    3.3430    5.2189 H         1 <0>         0.0677
     31 H4          0.6367    1.4750    8.1342 H         1 <0>         0.1406
     32 H5          1.9811   -1.8374    5.8009 H         1 <0>         0.1397
     33 H6          0.9036   -0.8757    3.8083 H         1 <0>         0.1555
     34 H7         -1.2030    1.9996    3.8187 H         1 <0>         0.4156
     35 H8         -0.7592    2.6569    1.2683 H         1 <0>         0.1187
     36 H9         -1.7580    1.1836    1.2796 H         1 <0>         0.1200
     37 H10        -0.0013   -0.0171    0.0065 H         1 <0>         0.1481
     38 H11         0.9976    1.4561   -0.0047 H         1 <0>         0.1484
     39 H12         1.2747    2.7481   -2.9588 H         1 <0>         0.1614
     40 H13         2.5686    1.8720   -4.8602 H         1 <0>         0.1493
     41 H14        -1.1122   -0.7872   -2.9260 H         1 <0>         0.1631
     42 H15         3.2807   -1.1047   -7.6185 H         1 <0>         0.1025
     43 H16         2.8440    0.6083   -7.4115 H         1 <0>         0.0842
     44 H17         3.9896   -0.1602   -6.2867 H         1 <0>         0.0841
@<TRIPOS>BOND
     1    1    2 1
     2    1   28 1
     3    1   29 1
     4    1   30 1
     5    2    7 ar
     6    2    3 ar
     7    3    4 ar
     8    3   31 1
     9    4    5 ar
    10    4   27 1
    11    5    6 ar
    12    5   32 1
    13    6    7 ar
    14    6   33 1
    15    7    8 1
    16    8    9 am
    17    8   34 1
    18    9   10 2
    19    9   11 1
    20   11   12 1
    21   11   35 1
    22   11   36 1
    23   12   13 1
    24   12   37 1
    25   12   38 1
    26   13   14 2
    27   13   15 2
    28   13   16 1
    29   16   21 ar
    30   16   17 ar
    31   17   18 ar
    32   17   39 1
    33   18   19 ar
    34   18   40 1
    35   19   25 1
    36   19   20 ar
    37   20   21 ar
    38   20   22 1
    39   21   41 1
    40   22   23 1
    41   23   24 2
    42   23   25 am
    43   25   26 1
    44   26   42 1
    45   26   43 1
    46   26   44 1
@<TRIPOS>MOLECULE
ZINC21354761
   56    58     0     0     0
SMALL
USER_CHARGES
2-(3-cyano-4,6-dimethyl-2-oxo-1-pyridyl)-N-[4-[(3S)-3-methylpiperidine-1-carbonyl]phenyl]acetamide
@<TRIPOS>ATOM
      1 C1          2.4696   10.9245   -2.9494 C.3       1 <0>        -0.1400
      2 C2          2.7802    9.5923   -2.3172 C.2       1 <0>         0.0972
      3 C3          2.5702    9.3893   -0.9525 C.2       1 <0>        -0.2362
      4 C4          2.8470    8.1849   -0.3924 C.2       1 <0>         0.2089
      5 N1          3.3396    7.1623   -1.1329 N.am      1 <0>        -0.4763
      6 C5          3.5607    7.3048   -2.4536 C.2       1 <0>         0.5507
      7 O1          4.0000    6.3721   -3.1041 O.2       1 <0>        -0.5288
      8 C6          3.2809    8.5445   -3.0857 C.2       1 <0>        -0.1818
      9 C7          3.5091    8.7145   -4.4891 C.1       1 <0>         0.2789
     10 N2          3.6902    8.8494   -5.6025 N.1       1 <0>        -0.4165
     11 C8          3.6308    5.8798   -0.4875 C.3       1 <0>         0.0595
     12 C9          2.4348    4.9714   -0.6128 C.2       1 <0>         0.5046
     13 O2          1.4376    5.3574   -1.1850 O.2       1 <0>        -0.5002
     14 N3          2.4736    3.7302   -0.0892 N.am      1 <0>        -0.6818
     15 C10         1.3322    2.9294   -0.1085 C.ar      1 <0>         0.1757
     16 C11         1.4536    1.5513   -0.2564 C.ar      1 <0>        -0.1487
     17 C12         0.3288    0.7577   -0.2750 C.ar      1 <0>        -0.0434
     18 C13        -0.9363    1.3384   -0.1515 C.ar      1 <0>        -0.1462
     19 C14        -1.0544    2.7224    0.0022 C.ar      1 <0>        -0.0680
     20 C15         0.0745    3.5102    0.0205 C.ar      1 <0>        -0.1298
     21 C16        -2.1447    0.4913   -0.1772 C.2       1 <0>         0.5630
     22 O3         -2.1555   -0.5705    0.4152 O.2       1 <0>        -0.5354
     23 N4         -3.2361    0.8947   -0.8572 N.am      1 <0>        -0.6066
     24 C17        -3.2025    2.1192   -1.6684 C.3       1 <0>         0.0939
     25 C18        -3.6679    1.7754   -3.0915 C.3       1 <0>        -0.1366
     26 C19        -5.0414    1.1039   -3.0246 C.3       1 <0>        -0.1167
     27 C20        -4.9367   -0.1969   -2.2250 C.3       1 <0>        -0.1060
     28 H1         -4.2060   -0.8653   -2.7039 H         1 <0>         0.0748
     29 C21        -4.4840    0.1215   -0.7966 C.3       1 <0>         0.1135
     30 C22        -6.3029   -0.8847   -2.1864 C.3       1 <0>        -0.1479
     31 C23         2.6081    7.9824    1.0817 C.3       1 <0>        -0.1435
     32 H2          2.0872   11.6141   -2.1824 H         1 <0>         0.0863
     33 H3          1.7097   10.7901   -3.7333 H         1 <0>         0.0891
     34 H4          3.3852   11.3418   -3.3939 H         1 <0>         0.0893
     35 H5          2.1825   10.1913   -0.3419 H         1 <0>         0.1604
     36 H6          4.4989    5.4125   -0.9754 H         1 <0>         0.1401
     37 H7          3.8543    6.0471    0.5765 H         1 <0>         0.1398
     38 H8          3.4056    3.3489    0.3534 H         1 <0>         0.4415
     39 H9          2.4313    1.1036   -0.3563 H         1 <0>         0.1354
     40 H10         0.4238   -0.3121   -0.3894 H         1 <0>         0.1363
     41 H11        -2.0304    3.1739    0.1024 H         1 <0>         0.1337
     42 H12        -0.0163    4.5802    0.1354 H         1 <0>         0.1386
     43 H13        -3.8729    2.8707   -1.2259 H         1 <0>         0.0720
     44 H14        -2.1760    2.5137   -1.6946 H         1 <0>         0.0965
     45 H15        -3.7369    2.6974   -3.6875 H         1 <0>         0.0784
     46 H16        -2.9449    1.0903   -3.5583 H         1 <0>         0.0682
     47 H17        -5.7563    1.7797   -2.5324 H         1 <0>         0.0659
     48 H18        -5.3902    0.8802   -4.0436 H         1 <0>         0.0679
     49 H19        -4.3097   -0.8132   -0.2436 H         1 <0>         0.0950
     50 H20        -5.2570    0.7124   -0.2834 H         1 <0>         0.0695
     51 H21        -6.2267   -1.8194   -1.6116 H         1 <0>         0.0590
     52 H22        -6.6287   -1.1107   -3.2124 H         1 <0>         0.0602
     53 H23        -7.0354   -0.2184   -1.7075 H         1 <0>         0.0576
     54 H24         2.8854    6.9550    1.3603 H         1 <0>         0.0789
     55 H25         1.5444    8.1490    1.3070 H         1 <0>         0.1046
     56 H26         3.2201    8.6953    1.6537 H         1 <0>         0.1056
@<TRIPOS>BOND
     1    1    2 1
     2    1   32 1
     3    1   33 1
     4    1   34 1
     5    2    8 2
     6    2    3 1
     7    3    4 2
     8    3   35 1
     9    4    5 1
    10    4   31 1
    11    5    6 am
    12    5   11 1
    13    6    7 2
    14    6    8 1
    15    8    9 1
    16    9   10 3
    17   11   12 1
    18   11   36 1
    19   11   37 1
    20   12   13 2
    21   12   14 am
    22   14   15 1
    23   14   38 1
    24   15   20 ar
    25   15   16 ar
    26   16   17 ar
    27   16   39 1
    28   17   18 ar
    29   17   40 1
    30   18   19 ar
    31   18   21 1
    32   19   20 ar
    33   19   41 1
    34   20   42 1
    35   21   22 2
    36   21   23 am
    37   23   29 1
    38   23   24 1
    39   24   25 1
    40   24   43 1
    41   24   44 1
    42   25   26 1
    43   25   45 1
    44   25   46 1
    45   26   27 1
    46   26   47 1
    47   26   48 1
    48   27   28 1
    49   27   29 1
    50   27   30 1
    51   29   49 1
    52   29   50 1
    53   30   51 1
    54   30   52 1
    55   30   53 1
    56   31   54 1
    57   31   55 1
    58   31   56 1
@<TRIPOS>MOLECULE
ZINC40567947
   42    43     0     0     0
SMALL
USER_CHARGES

@<TRIPOS>ATOM
      1 C1         -0.4026    1.6120    1.1807 C.3       1 <0>         0.0916
      2 N1         -0.4483    0.1527    1.0595 N.am      1 <0>        -0.6108
      3 C2          0.1477   -0.6878    2.1010 C.3       1 <0>         0.0785
      4 C3         -1.0385   -0.4165   -0.0101 C.2       1 <0>         0.5234
      5 O1         -1.4397    0.2760   -0.9213 O.2       1 <0>        -0.5287
      6 C4         -1.2000   -1.9135   -0.0738 C.3       1 <0>        -0.0964
      7 H1         -0.8505   -2.3596    0.8573 H         1 <0>         0.1050
      8 C5         -0.3888   -2.4689   -1.2464 C.3       1 <0>        -0.0748
      9 C6         -1.0207   -2.0689   -2.5475 C.2       1 <0>        -0.1634
     10 C7         -2.2376   -1.6428   -2.6620 C.2       1 <0>        -0.1214
     11 C8         -3.1834   -1.4797   -1.5083 C.3       1 <0>        -0.0877
     12 C9         -2.6775   -2.2640   -0.2909 C.3       1 <0>        -0.0924
     13 H2         -2.7765   -3.3330   -0.4796 H         1 <0>         0.1191
     14 C10        -3.4729   -1.8853    0.9318 C.2       1 <0>         0.5247
     15 O2         -2.9166   -1.3838    1.8858 O.2       1 <0>        -0.4988
     16 N2         -4.8024   -2.1038    0.9652 N.am      1 <0>        -0.6700
     17 C11        -5.5256   -1.8414    2.1344 C.ar      1 <0>         0.2314
     18 C12        -5.1659   -0.7775    2.9511 C.ar      1 <0>        -0.1169
     19 C13        -5.8814   -0.5211    4.1042 C.ar      1 <0>        -0.0179
     20 C14        -6.9551   -1.3228    4.4466 C.ar      1 <0>        -0.0634
     21 C15        -7.3164   -2.3830    3.6361 C.ar      1 <0>        -0.0039
     22 C16        -6.6084   -2.6414    2.4775 C.ar      1 <0>        -0.1323
     23 Br1        -7.1077   -4.0869    1.3653 Br        1 <0>        -0.0060
     24 N3         -7.7189   -1.0454    5.6838 N.pl3     1 <0>         0.0357
     25 O3         -7.4039   -0.1188    6.3937 O.2       1 <0>        -0.1513
     26 O4         -8.6577   -1.7453    5.9844 O.3       1 <0>        -0.1532
     27 H3          0.1099    1.8841    2.1034 H         1 <0>         0.0742
     28 H4          0.1346    2.0306    0.3297 H         1 <0>         0.0604
     29 H5         -1.4184    2.0070    1.1992 H         1 <0>         0.0575
     30 H6         -0.5764   -0.8436    2.9007 H         1 <0>         0.0652
     31 H7          0.4300   -1.6501    1.6739 H         1 <0>         0.0714
     32 H8          1.0328   -0.1951    2.5032 H         1 <0>         0.0686
     33 H9          0.6267   -2.0753   -1.2019 H         1 <0>         0.0792
     34 H10        -0.3559   -3.5564   -1.1800 H         1 <0>         0.0876
     35 H11        -0.4231   -2.1414   -3.4441 H         1 <0>         0.1075
     36 H12        -2.5946   -1.3893   -3.6492 H         1 <0>         0.1082
     37 H13        -3.2587   -0.4236   -1.2493 H         1 <0>         0.1032
     38 H14        -4.1680   -1.8509   -1.7930 H         1 <0>         0.0720
     39 H15        -5.2580   -2.4429    0.1789 H         1 <0>         0.4213
     40 H16        -4.3272   -0.1513    2.6850 H         1 <0>         0.1708
     41 H17        -5.6019    0.3063    4.7396 H         1 <0>         0.1647
     42 H18        -8.1553   -3.0072    3.9062 H         1 <0>         0.1678
@<TRIPOS>BOND
     1    1    2 1
     2    1   27 1
     3    1   28 1
     4    1   29 1
     5    2    3 1
     6    2    4 am
     7    3   30 1
     8    3   31 1
     9    3   32 1
    10    4    5 2
    11    4    6 1
    12    6    7 1
    13    6   12 1
    14    6    8 1
    15    8    9 1
    16    8   33 1
    17    8   34 1
    18    9   10 2
    19    9   35 1
    20   10   11 1
    21   10   36 1
    22   11   12 1
    23   11   37 1
    24   11   38 1
    25   12   13 1
    26   12   14 1
    27   14   15 2
    28   14   16 am
    29   16   17 1
    30   16   39 1
    31   17   22 ar
    32   17   18 ar
    33   18   19 ar
    34   18   40 1
    35   19   20 ar
    36   19   41 1
    37   20   21 ar
    38   20   24 1
    39   21   22 ar
    40   21   42 1
    41   22   23 1
    42   24   25 2
    43   24   26 1
@<TRIPOS>MOLECULE
ZINC62607101
   49    52     0     0     0
SMALL
USER_CHARGES

@<TRIPOS>ATOM
      1 C1         -0.0179    1.5028    0.0119 C.3       1 <0>        -0.1186
      2 C2          0.0024   -0.0041    0.0031 C.ar      1 <0>        -0.0729
      3 C3         -0.5725   -0.6970   -1.0458 C.ar      1 <0>        -0.1195
      4 C4         -0.5539   -2.0792   -1.0539 C.ar      1 <0>        -0.0820
      5 C5          0.0400   -2.7685   -0.0132 C.ar      1 <0>        -0.1072
      6 C6          0.6157   -2.0756    1.0353 C.ar      1 <0>        -0.1005
      7 C7          0.6009   -0.6933    1.0412 C.ar      1 <0>        -0.1221
      8 C8          0.0595   -4.2753   -0.0215 C.3       1 <0>         0.1910
      9 H1         -0.3750   -4.6409   -0.9519 H         1 <0>         0.1322
     10 C9          1.4781   -4.7616    0.0974 C.2       1 <0>         0.5245
     11 O1          2.2119   -4.6450   -0.8613 O.2       1 <0>        -0.5319
     12 N1          1.9663   -5.3146    1.2086 N.am      1 <0>        -0.7142
     13 C10         1.1829   -5.6011    2.4026 C.3       1 <0>         0.0922
     14 C11        -0.0769   -4.7341    2.4460 C.3       1 <0>         0.0912
     15 N2         -0.7178   -4.7842    1.1184 N.pl3     1 <0>        -0.9961
     16 S1         -2.2461   -5.3894    0.9176 S.o2      1 <0>         2.6949
     17 O2         -2.9013   -5.2623    2.1721 O.2       1 <0>        -0.9443
     18 O3         -2.7602   -4.8077   -0.2727 O.2       1 <0>        -0.9416
     19 C12        -2.0859   -7.1161    0.6057 C.ar      1 <0>        -0.7054
     20 C13        -1.9492   -7.5767   -0.6912 C.ar      1 <0>         0.0183
     21 C14        -1.8233   -8.9272   -0.9422 C.ar      1 <0>        -0.1564
     22 C15        -1.8325   -9.8385    0.1122 C.ar      1 <0>         0.2054
     23 C16        -1.9699   -9.3635    1.4102 C.ar      1 <0>        -0.1646
     24 C17        -2.0906   -8.0146    1.6583 C.ar      1 <0>         0.0363
     25 C18        -1.9436  -10.5761    2.3119 C.3       1 <0>        -0.1135
     26 C19        -1.7783  -11.7403    1.3582 C.2       1 <0>         0.5264
     27 O4         -1.7085  -12.9133    1.6586 O.2       1 <0>        -0.4871
     28 N3         -1.7231  -11.2296    0.1166 N.am      1 <0>        -0.5553
     29 C20        -1.5660  -12.0402   -1.0935 C.3       1 <0>         0.0719
     30 H2          0.8716    1.8811   -0.4917 H         1 <0>         0.0732
     31 H3         -0.9081    1.8572   -0.5078 H         1 <0>         0.0690
     32 H4         -0.0321    1.8600    1.0416 H         1 <0>         0.0679
     33 H5         -1.0366   -0.1584   -1.8589 H         1 <0>         0.1280
     34 H6         -1.0037   -2.6205   -1.8730 H         1 <0>         0.1317
     35 H7          1.0795   -2.6141    1.8485 H         1 <0>         0.1237
     36 H8          1.0539   -0.1519    1.8585 H         1 <0>         0.1252
     37 H9          2.9091   -5.5422    1.2225 H         1 <0>         0.4043
     38 H10         0.8950   -6.6523    2.3991 H         1 <0>         0.0739
     39 H11         1.7883   -5.3986    3.2861 H         1 <0>         0.0960
     40 H12        -0.7633   -5.1201    3.1996 H         1 <0>         0.1181
     41 H13         0.1926   -3.7055    2.6855 H         1 <0>         0.0965
     42 H14        -1.9415   -6.8750   -1.5122 H         1 <0>         0.1487
     43 H15        -1.7178   -9.2791   -1.9578 H         1 <0>         0.1389
     44 H16        -2.1930   -7.6585    2.6727 H         1 <0>         0.1482
     45 H17        -1.0994  -10.5227    2.9993 H         1 <0>         0.1298
     46 H18        -2.8805  -10.6632    2.8622 H         1 <0>         0.1307
     47 H19        -0.5055  -12.1606   -1.3151 H         1 <0>         0.0724
     48 H20        -2.0177  -13.0195   -0.9360 H         1 <0>         0.0891
     49 H21        -2.0578  -11.5435   -1.9299 H         1 <0>         0.0836
@<TRIPOS>BOND
     1    1    2 1
     2    1   30 1
     3    1   31 1
     4    1   32 1
     5    2    7 ar
     6    2    3 ar
     7    3    4 ar
     8    3   33 1
     9    4    5 ar
    10    4   34 1
    11    5    6 ar
    12    5    8 1
    13    6    7 ar
    14    6   35 1
    15    7   36 1
    16    8    9 1
    17    8   15 1
    18    8   10 1
    19   10   11 2
    20   10   12 am
    21   12   13 1
    22   12   37 1
    23   13   14 1
    24   13   38 1
    25   13   39 1
    26   14   15 1
    27   14   40 1
    28   14   41 1
    29   15   16 1
    30   16   17 2
    31   16   18 2
    32   16   19 1
    33   19   24 ar
    34   19   20 ar
    35   20   21 ar
    36   20   42 1
    37   21   22 ar
    38   21   43 1
    39   22   28 1
    40   22   23 ar
    41   23   24 ar
    42   23   25 1
    43   24   44 1
    44   25   26 1
    45   25   45 1
    46   25   46 1
    47   26   27 2
    48   26   28 am
    49   28   29 1
    50   29   47 1
    51   29   48 1
    52   29   49 1
@<TRIPOS>MOLECULE
ZINC67571219
   48    51     0     0     0
SMALL
USER_CHARGES

@<TRIPOS>ATOM
      1 C1         -0.0271    1.3105   -0.5744 C.ar      1 <0>        -0.1286
      2 C2          1.1561    2.0012   -0.7624 C.ar      1 <0>        -0.0940
      3 C3          2.3662    1.3467   -0.6407 C.ar      1 <0>        -0.1207
      4 C4          2.3940   -0.0061   -0.3289 C.ar      1 <0>         0.1613
      5 C5          1.2042   -0.6967   -0.1403 C.ar      1 <0>        -0.1410
      6 C6         -0.0028   -0.0367   -0.2637 C.ar      1 <0>        -0.0910
      7 N1          3.6199   -0.6730   -0.2053 N.pl3     1 <0>        -0.3128
      8 C7          3.7878   -1.9883    0.0888 C.2       1 <0>         0.0671
      9 C8          5.1163   -2.2384    0.1158 C.2       1 <0>        -0.2511
     10 C9          5.7881   -1.0380   -0.1710 C.2       1 <0>         0.3007
     11 N2          4.8886   -0.1022   -0.3691 N.2       1 <0>        -0.3030
     12 N3          7.1748   -0.8703   -0.2393 N.am      1 <0>        -0.6035
     13 C10         7.9921   -1.9192   -0.0192 C.2       1 <0>         0.5243
     14 O1          7.5245   -3.0094    0.2382 O.2       1 <0>        -0.4833
     15 C11         9.4729   -1.7401   -0.0921 C.2       1 <0>         0.5183
     16 O2          9.9439   -0.6300   -0.2285 O.2       1 <0>        -0.5073
     17 N4         10.2862   -2.8114   -0.0065 N.am      1 <0>        -0.5825
     18 C12         9.7421   -4.1786   -0.0191 C.3       1 <0>         0.0386
     19 C13        10.5053   -4.9930   -1.0698 C.3       1 <0>         0.0473
     20 O3         11.9096   -4.8708   -0.8312 O.3       1 <0>        -0.3685
     21 C14        12.4104   -3.5375   -0.9547 C.3       1 <0>         0.1235
     22 H1         12.1827   -3.1537   -1.9492 H         1 <0>         0.0780
     23 C15        11.7451   -2.6486    0.0963 C.3       1 <0>         0.0850
     24 C16        13.9027   -3.5388   -0.7451 C.ar      1 <0>        -0.0601
     25 C17        14.4729   -4.4165    0.1584 C.ar      1 <0>        -0.0994
     26 C18        15.8415   -4.4189    0.3517 C.ar      1 <0>        -0.0914
     27 C19        16.6417   -3.5434   -0.3578 C.ar      1 <0>        -0.1464
     28 C20        16.0720   -2.6642   -1.2628 C.ar      1 <0>         0.0994
     29 C21        14.7013   -2.6669   -1.4600 C.ar      1 <0>        -0.1402
     30 F1         16.8532   -1.8076   -1.9566 F         1 <0>        -0.1369
     31 H2         -0.9720    1.8255   -0.6660 H         1 <0>         0.1301
     32 H3          1.1338    3.0534   -1.0049 H         1 <0>         0.1332
     33 H4          3.2899    1.8865   -0.7884 H         1 <0>         0.1377
     34 H5          1.2225   -1.7491    0.1020 H         1 <0>         0.1315
     35 H6         -0.9285   -0.5734   -0.1175 H         1 <0>         0.1346
     36 H7          3.0011   -2.7059    0.2689 H         1 <0>         0.1858
     37 H8          5.5793   -3.1921    0.3218 H         1 <0>         0.1811
     38 H9          7.5485    0.0009   -0.4450 H         1 <0>         0.4305
     39 H10         9.8706   -4.6339    0.9629 H         1 <0>         0.0863
     40 H11         8.6830   -4.1498   -0.2751 H         1 <0>         0.1442
     41 H12        10.2141   -6.0411   -1.0001 H         1 <0>         0.1159
     42 H13        10.2708   -4.6146   -2.0647 H         1 <0>         0.0586
     43 H14        12.0118   -1.6071   -0.0834 H         1 <0>         0.1097
     44 H15        12.0788   -2.9473    1.0900 H         1 <0>         0.0898
     45 H16        13.8483   -5.1005    0.7139 H         1 <0>         0.1371
     46 H17        16.2857   -5.1049    1.0577 H         1 <0>         0.1368
     47 H18        17.7110   -3.5450   -0.2061 H         1 <0>         0.1378
     48 H19        14.2562   -1.9845   -2.1690 H         1 <0>         0.1376
@<TRIPOS>BOND
     1    1    6 ar
     2    1    2 ar
     3    1   31 1
     4    2    3 ar
     5    2   32 1
     6    3    4 ar
     7    3   33 1
     8    4    5 ar
     9    4    7 1
    10    5    6 ar
    11    5   34 1
    12    6   35 1
    13    7   11 1
    14    7    8 1
    15    8    9 2
    16    8   36 1
    17    9   10 1
    18    9   37 1
    19   10   11 2
    20   10   12 1
    21   12   13 am
    22   12   38 1
    23   13   14 2
    24   13   15 1
    25   15   16 2
    26   15   17 am
    27   17   23 1
    28   17   18 1
    29   18   19 1
    30   18   39 1
    31   18   40 1
    32   19   20 1
    33   19   41 1
    34   19   42 1
    35   20   21 1
    36   21   22 1
    37   21   23 1
    38   21   24 1
    39   23   43 1
    40   23   44 1
    41   24   29 ar
    42   24   25 ar
    43   25   26 ar
    44   25   45 1
    45   26   27 ar
    46   26   46 1
    47   27   28 ar
    48   27   47 1
    49   28   29 ar
    50   28   30 1
    51   29   48 1
@<TRIPOS>MOLECULE
ZINC12735597
   55    57     0     0     0
SMALL
USER_CHARGES
N'-[(1R)-cyclohex-3-ene-1-carbonyl]-1-(p-tolylsulfonyl)piperidine-4-carbohydrazide
@<TRIPOS>ATOM
      1 C1          2.6135   12.2238   -6.0681 C.3       1 <0>        -0.1266
      2 C2          1.3069   11.7250   -6.6293 C.ar      1 <0>        -0.0272
      3 C3          1.2947   10.6585   -7.5087 C.ar      1 <0>        -0.1424
      4 C4          0.0962   10.2009   -8.0235 C.ar      1 <0>        -0.0165
      5 C5         -1.0902   10.8091   -7.6582 C.ar      1 <0>        -0.6846
      6 C6         -1.0775   11.8787   -6.7824 C.ar      1 <0>        -0.0150
      7 C7          0.1206   12.3335   -6.2643 C.ar      1 <0>        -0.1413
      8 S1         -2.6179   10.2258   -8.3143 S.o2      1 <0>         2.6907
      9 O1         -2.3107    9.5696   -9.5367 O.2       1 <0>        -0.9531
     10 O2         -3.5322   11.3111   -8.2411 O.2       1 <0>        -0.9523
     11 N1         -3.1819    9.0613   -7.2807 N.pl3     1 <0>        -0.9980
     12 C8         -4.0568    9.4189   -6.1558 C.3       1 <0>         0.1195
     13 C9         -3.4513    8.8618   -4.8637 C.3       1 <0>        -0.1155
     14 C10        -3.2149    7.3581   -5.0228 C.3       1 <0>        -0.0930
     15 C11        -2.2254    7.1138   -6.1644 C.3       1 <0>        -0.1320
     16 C12        -2.8172    7.6509   -7.4714 C.3       1 <0>         0.1217
     17 C13        -2.6508    6.8003   -3.7415 C.2       1 <0>         0.5188
     18 O3         -2.4565    7.5330   -2.7948 O.2       1 <0>        -0.5343
     19 N2         -2.3623    5.4871   -3.6477 N.am      1 <0>        -0.5248
     20 N3         -1.8379    4.9685   -2.4565 N.am      1 <0>        -0.5252
     21 C14        -1.5493    3.6553   -2.3627 C.2       1 <0>         0.5199
     22 O4         -1.7436    2.9226   -3.3095 O.2       1 <0>        -0.5342
     23 C15        -0.9852    3.0974   -1.0815 C.3       1 <0>        -0.0962
     24 H1         -0.0438    3.5950   -0.8484 H         1 <0>         0.1065
     25 C16        -0.7473    1.5900   -1.2361 C.3       1 <0>        -0.0994
     26 C17        -0.0127    1.0858    0.0080 C.3       1 <0>        -0.0945
     27 C18        -0.7096    1.5670    1.2469 C.2       1 <0>        -0.1506
     28 C19        -1.5605    2.5397    1.2709 C.2       1 <0>        -0.1582
     29 C20        -1.9832    3.3155    0.0579 C.3       1 <0>        -0.0837
     30 H2          3.0196   12.9947   -6.7230 H         1 <0>         0.0806
     31 H3          2.4467   12.6415   -5.0752 H         1 <0>         0.0735
     32 H4          3.3195   11.3961   -6.0001 H         1 <0>         0.0731
     33 H5          2.2215   10.1831   -7.7939 H         1 <0>         0.1327
     34 H6          0.0866    9.3679   -8.7109 H         1 <0>         0.1389
     35 H7         -2.0040   12.3567   -6.5004 H         1 <0>         0.1396
     36 H8          0.1302   13.1665   -5.5769 H         1 <0>         0.1332
     37 H9         -5.0460    8.9884   -6.3111 H         1 <0>         0.0819
     38 H10        -4.1353   10.5038   -6.0845 H         1 <0>         0.0980
     39 H11        -4.1378    9.0365   -4.0353 H         1 <0>         0.0888
     40 H12        -2.5029    9.3598   -4.6620 H         1 <0>         0.0786
     41 H13        -4.1597    6.8639   -5.2491 H         1 <0>         0.1099
     42 H14        -1.2887    7.6285   -5.9504 H         1 <0>         0.0783
     43 H15        -2.0394    6.0443   -6.2620 H         1 <0>         0.0840
     44 H16        -3.7054    7.0761   -7.7340 H         1 <0>         0.0837
     45 H17        -2.0797    7.5689   -8.2698 H         1 <0>         0.0981
     46 H18        -2.5177    4.9011   -4.4049 H         1 <0>         0.4320
     47 H19        -1.6825    5.5545   -1.6994 H         1 <0>         0.4320
     48 H20        -0.1390    1.4040   -2.1213 H         1 <0>         0.0780
     49 H21        -1.7038    1.0758   -1.3304 H         1 <0>         0.0739
     50 H22         0.0021   -0.0041    0.0020 H         1 <0>         0.0797
     51 H23         1.0106    1.4611    0.0003 H         1 <0>         0.0774
     52 H24        -0.4850    1.0707    2.1794 H         1 <0>         0.1065
     53 H25        -1.9959    2.8095    2.2217 H         1 <0>         0.1097
     54 H26        -2.0245    4.3766    0.3038 H         1 <0>         0.0784
     55 H27        -2.9713    2.9813   -0.2585 H         1 <0>         0.0810
@<TRIPOS>BOND
     1    1    2 1
     2    1   30 1
     3    1   31 1
     4    1   32 1
     5    2    7 ar
     6    2    3 ar
     7    3    4 ar
     8    3   33 1
     9    4    5 ar
    10    4   34 1
    11    5    6 ar
    12    5    8 1
    13    6    7 ar
    14    6   35 1
    15    7   36 1
    16    8    9 2
    17    8   10 2
    18    8   11 1
    19   11   16 1
    20   11   12 1
    21   12   13 1
    22   12   37 1
    23   12   38 1
    24   13   14 1
    25   13   39 1
    26   13   40 1
    27   14   15 1
    28   14   17 1
    29   14   41 1
    30   15   16 1
    31   15   42 1
    32   15   43 1
    33   16   44 1
    34   16   45 1
    35   17   18 2
    36   17   19 am
    37   19   20 1
    38   19   46 1
    39   20   21 am
    40   20   47 1
    41   21   22 2
    42   21   23 1
    43   23   24 1
    44   23   29 1
    45   23   25 1
    46   25   26 1
    47   25   48 1
    48   25   49 1
    49   26   27 1
    50   26   50 1
    51   26   51 1
    52   27   28 2
    53   27   52 1
    54   28   29 1
    55   28   53 1
    56   29   54 1
    57   29   55 1
@<TRIPOS>MOLECULE
ZINC21762334
   48    51     0     0     0
SMALL
USER_CHARGES
2-(4-aminothieno[3,2-e]pyrimidin-2-yl)sulfanyl-1-[1-[(3S)-1,1-dioxothiolan-3-yl]-2,5-dimethyl-pyrrol-3-yl]ethanone
@<TRIPOS>ATOM
      1 C1         -0.1554    0.6512    0.1490 C.3       1 <0>        -0.1038
      2 C2         -0.7811    1.3799    1.3102 C.2       1 <0>         0.0059
      3 C3         -0.1892    1.6126    2.4936 C.2       1 <0>        -0.1395
      4 C4         -1.1664    2.3478    3.3075 C.2       1 <0>        -0.2586
      5 C5         -2.2879    2.4924    2.5127 C.2       1 <0>         0.1211
      6 N1         -2.0372    1.9138    1.3248 N.pl3     1 <0>        -0.4251
      7 C6         -2.9809    1.8605    0.2055 C.3       1 <0>         0.1173
      8 H1         -3.9222    2.2831    0.5867 H         1 <0>         0.1286
      9 C7         -2.4366    2.6857   -0.9723 C.3       1 <0>        -0.1461
     10 C8         -3.2517    2.3801   -2.2521 C.3       1 <0>        -0.5814
     11 S1         -3.8279    0.6577   -1.9622 S.o2      1 <0>         2.3912
     12 O1         -5.2474    0.6499   -1.8971 O.2       1 <0>        -0.9238
     13 O2         -3.1648   -0.2106   -2.8707 O.2       1 <0>        -0.9239
     14 C9         -3.1488    0.3893   -0.2706 C.3       1 <0>        -0.6205
     15 C10        -3.5677    3.1837    2.9068 C.3       1 <0>        -0.0984
     16 C11        -0.9888    2.8288    4.6793 C.2       1 <0>         0.4454
     17 O3         -1.8874    3.4269    5.2336 O.2       1 <0>        -0.4561
     18 C12         0.3098    2.5810    5.4025 C.3       1 <0>        -0.1698
     19 S2          0.2197    3.2910    7.0650 S.3       1 <0>         0.0820
     20 C13         1.8211    2.8677    7.6658 C.ar      1 <0>         0.3543
     21 N2          2.1713    3.2258    8.8958 N.ar      1 <0>        -0.5789
     22 C14         3.3565    2.9318    9.4024 C.ar      1 <0>         0.5118
     23 C15         4.2967    2.2185    8.6075 C.ar      1 <0>        -0.2729
     24 C16         5.6465    1.7874    8.9304 C.2       1 <0>        -0.1055
     25 C17         6.3580    1.1195    8.0113 C.2       1 <0>        -0.1772
     26 S3          5.2490    1.0179    6.6190 S.3       1 <0>         0.1020
     27 C18         3.8592    1.8757    7.3100 C.ar      1 <0>         0.1639
     28 N3          2.6561    2.2021    6.8794 N.ar      1 <0>        -0.5362
     29 N4          3.6808    3.3174   10.6904 N.pl3     1 <0>        -0.8445
     30 H2          0.8617    0.3327    0.4211 H         1 <0>         0.0923
     31 H3         -0.1091    1.3211   -0.7223 H         1 <0>         0.0739
     32 H4         -0.7621   -0.2321   -0.0994 H         1 <0>         0.0766
     33 H5          0.8070    1.3172    2.7883 H         1 <0>         0.1524
     34 H6         -2.5182    3.7573   -0.7379 H         1 <0>         0.1070
     35 H7         -1.3813    2.4273   -1.1444 H         1 <0>         0.1019
     36 H8         -4.0812    3.0973   -2.3385 H         1 <0>         0.1486
     37 H9         -2.5982    2.4675   -3.1326 H         1 <0>         0.1526
     38 H10        -2.1703   -0.1131   -0.2610 H         1 <0>         0.1637
     39 H11        -3.8385   -0.1382    0.4047 H         1 <0>         0.1548
     40 H12        -4.2801    3.1412    2.0698 H         1 <0>         0.0657
     41 H13        -3.3556    4.2342    3.1549 H         1 <0>         0.0937
     42 H14        -4.0014    2.6803    3.7834 H         1 <0>         0.0937
     43 H15         0.4879    1.4980    5.4755 H         1 <0>         0.1301
     44 H16         1.1344    3.0516    4.8471 H         1 <0>         0.1301
     45 H17         6.0714    2.0026    9.8997 H         1 <0>         0.1357
     46 H18         7.3639    0.7351    8.0942 H         1 <0>         0.1951
     47 H19         4.6686    3.0699   11.1064 H         1 <0>         0.4358
     48 H20         2.9510    3.8716   11.2988 H         1 <0>         0.4352
@<TRIPOS>BOND
     1    1    2 1
     2    1   30 1
     3    1   31 1
     4    1   32 1
     5    2    6 1
     6    2    3 2
     7    3    4 1
     8    3   33 1
     9    4    5 2
    10    4   16 1
    11    5    6 1
    12    5   15 1
    13    6    7 1
    14    7    8 1
    15    7   14 1
    16    7    9 1
    17    9   10 1
    18    9   34 1
    19    9   35 1
    20   10   11 1
    21   10   36 1
    22   10   37 1
    23   11   12 2
    24   11   13 2
    25   11   14 1
    26   14   38 1
    27   14   39 1
    28   15   40 1
    29   15   41 1
    30   15   42 1
    31   16   17 2
    32   16   18 1
    33   18   19 1
    34   18   43 1
    35   18   44 1
    36   19   20 1
    37   20   28 ar
    38   20   21 ar
    39   21   22 ar
    40   22   23 ar
    41   22   29 1
    42   23   27 ar
    43   23   24 1
    44   24   25 2
    45   24   45 1
    46   25   26 1
    47   25   46 1
    48   26   27 1
    49   27   28 ar
    50   29   47 1
    51   29   48 1
@<TRIPOS>MOLECULE
ZINC12688880
   57    61     0     0     0
SMALL
USER_CHARGES

@<TRIPOS>ATOM
      1 C1          0.0037    1.4140   -0.0906 C.ar      1 <0>        -0.1056
      2 C2          0.9535    1.6578   -1.0649 C.ar      1 <0>        -0.1155
      3 C3          2.1533    0.9716   -1.0477 C.ar      1 <0>        -0.0929
      4 C4          2.4036    0.0418   -0.0558 C.ar      1 <0>        -0.0981
      5 C5          1.4541   -0.2014    0.9191 C.ar      1 <0>        -0.1034
      6 C6          0.2537    0.4839    0.9010 C.ar      1 <0>        -0.1128
      7 C7          3.7112   -0.7071   -0.0376 C.3       1 <0>         0.2312
      8 C8          4.2770   -0.7580    1.3678 C.2       1 <0>         0.5439
      9 O1          3.7702   -1.2695    2.3431 O.2       1 <0>        -0.4388
     10 N1          5.4611   -0.1172    1.3072 N.am      1 <0>        -0.3734
     11 C9          5.7193    0.3268    0.0718 C.2       1 <0>         0.7136
     12 O2          6.7274    0.9345   -0.2307 O.2       1 <0>        -0.5181
     13 N2          4.7385    0.0252   -0.7981 N.am      1 <0>        -0.7089
     14 N3          6.3157    0.0624    2.4027 N.am      1 <0>        -0.5070
     15 C10         7.4370   -0.6774    2.5111 C.2       1 <0>         0.5195
     16 O3          7.7062   -1.4988    1.6603 O.2       1 <0>        -0.4868
     17 C11         8.3562   -0.4842    3.6896 C.3       1 <0>         0.0493
     18 N4          9.4977   -1.4019    3.5758 N.3       1 <0>        -0.5157
     19 C12        10.3028   -1.3973    4.8076 C.3       1 <0>         0.0530
     20 C13        11.2357   -2.6083    4.7823 C.3       1 <0>        -0.0750
     21 C14        11.9765   -2.6597    3.4707 C.ar      1 <0>        -0.0724
     22 C15        13.1111   -3.4521    3.3825 C.ar      1 <0>        -0.1204
     23 C16        13.8169   -3.5303    2.1989 C.ar      1 <0>        -0.1204
     24 C17        13.3898   -2.8155    1.0951 C.ar      1 <0>        -0.1212
     25 C18        12.2614   -2.0256    1.1822 C.ar      1 <0>        -0.1140
     26 C19        11.5525   -1.9437    2.3719 C.ar      1 <0>        -0.0730
     27 C20        10.3341   -1.0596    2.4211 C.3       1 <0>         0.0855
     28 C21         3.5320   -2.0973   -0.5912 C.ar      1 <0>        -0.1018
     29 C22         4.3008   -2.5203   -1.6592 C.ar      1 <0>        -0.0943
     30 C23         4.1364   -3.7955   -2.1670 C.ar      1 <0>        -0.1165
     31 C24         3.2035   -4.6477   -1.6065 C.ar      1 <0>        -0.1036
     32 C25         2.4353   -4.2250   -0.5378 C.ar      1 <0>        -0.1160
     33 C26         2.6027   -2.9513   -0.0273 C.ar      1 <0>        -0.0899
     34 H1         -0.9319    1.9534   -0.1014 H         1 <0>         0.1280
     35 H2          0.7580    2.3843   -1.8398 H         1 <0>         0.1295
     36 H3          2.8951    1.1615   -1.8093 H         1 <0>         0.1238
     37 H4          1.6494   -0.9283    1.6936 H         1 <0>         0.1368
     38 H5         -0.4882    0.2936    1.6624 H         1 <0>         0.1302
     39 H6          4.7129    0.2464   -1.7422 H         1 <0>         0.4456
     40 H7          6.1004    0.7193    3.0832 H         1 <0>         0.4274
     41 H8          8.7169    0.5443    3.7042 H         1 <0>         0.0778
     42 H9          7.8135   -0.6920    4.6117 H         1 <0>         0.1191
     43 H10        10.8924   -0.4818    4.8563 H         1 <0>         0.0451
     44 H11         9.6455   -1.4595    5.6749 H         1 <0>         0.0854
     45 H12        11.9524   -2.5302    5.5999 H         1 <0>         0.0818
     46 H13        10.6495   -3.5193    4.9028 H         1 <0>         0.0859
     47 H14        13.4445   -4.0107    4.2446 H         1 <0>         0.1214
     48 H15        14.7006   -4.1478    2.1352 H         1 <0>         0.1218
     49 H16        13.9383   -2.8749    0.1666 H         1 <0>         0.1222
     50 H17        11.9285   -1.4678    0.3193 H         1 <0>         0.1209
     51 H18         9.7562   -1.1921    1.5065 H         1 <0>         0.1072
     52 H19        10.6479   -0.0187    2.5001 H         1 <0>         0.0466
     53 H20         5.0297   -1.8545   -2.0972 H         1 <0>         0.1256
     54 H21         4.7366   -4.1257   -3.0020 H         1 <0>         0.1291
     55 H22         3.0746   -5.6437   -2.0037 H         1 <0>         0.1279
     56 H23         1.7062   -4.8907   -0.1001 H         1 <0>         0.1299
     57 H24         2.0051   -2.6223    0.8100 H         1 <0>         0.1305
@<TRIPOS>BOND
     1    1    6 ar
     2    1    2 ar
     3    1   34 1
     4    2    3 ar
     5    2   35 1
     6    3    4 ar
     7    3   36 1
     8    4    5 ar
     9    4    7 1
    10    5    6 ar
    11    5   37 1
    12    6   38 1
    13    7   13 1
    14    7    8 1
    15    7   28 1
    16    8    9 2
    17    8   10 am
    18   10   11 am
    19   10   14 1
    20   11   12 2
    21   11   13 am
    22   13   39 1
    23   14   15 am
    24   14   40 1
    25   15   16 2
    26   15   17 1
    27   17   18 1
    28   17   41 1
    29   17   42 1
    30   18   27 1
    31   18   19 1
    32   19   20 1
    33   19   43 1
    34   19   44 1
    35   20   21 1
    36   20   45 1
    37   20   46 1
    38   21   26 ar
    39   21   22 ar
    40   22   23 ar
    41   22   47 1
    42   23   24 ar
    43   23   48 1
    44   24   25 ar
    45   24   49 1
    46   25   26 ar
    47   25   50 1
    48   26   27 1
    49   27   51 1
    50   27   52 1
    51   28   33 ar
    52   28   29 ar
    53   29   30 ar
    54   29   53 1
    55   30   31 ar
    56   30   54 1
    57   31   32 ar
    58   31   55 1
    59   32   33 ar
    60   32   56 1
    61   33   57 1
@<TRIPOS>MOLECULE
ZINC00884602
   54    57     0     0     0
SMALL
USER_CHARGES

@<TRIPOS>ATOM
      1 C1         -0.0184    1.5028    0.0103 C.3       1 <0>        -0.1193
      2 C2          0.0021   -0.0041    0.0020 C.ar      1 <0>        -0.0749
      3 C3          0.0057   -0.6887   -1.1989 C.ar      1 <0>        -0.1183
      4 C4          0.0245   -2.0709   -1.2065 C.ar      1 <0>        -0.0969
      5 C5          0.0400   -2.7685   -0.0132 C.ar      1 <0>        -0.1251
      6 C6          0.0373   -2.0839    1.1877 C.ar      1 <0>        -0.1101
      7 C7          0.0229   -0.7016    1.1953 C.ar      1 <0>        -0.1158
      8 C8          0.0595   -4.2753   -0.0215 C.3       1 <0>         0.1911
      9 H1          0.4099   -4.6318   -0.9901 H         1 <0>         0.1229
     10 C9         -1.3524   -4.8102    0.2442 C.3       1 <0>        -0.1506
     11 C10        -1.8723   -4.2632    1.5786 C.3       1 <0>         0.1281
     12 H2         -2.0746   -3.1966    1.4821 H         1 <0>         0.1352
     13 N1         -0.8512   -4.4783    2.6090 N.pl3     1 <0>        -0.4054
     14 C11         0.4543   -4.7117    2.3347 C.2       1 <0>         0.4423
     15 C12         1.1131   -4.8676    3.5398 C.2       1 <0>        -0.3524
     16 C13         0.1400   -4.7152    4.5598 C.2       1 <0>         0.1156
     17 N2         -1.0136   -4.4856    3.9933 N.2       1 <0>        -0.2843
     18 C14         2.5434   -5.1385    3.7273 C.2       1 <0>         0.6056
     19 O1          3.2739   -5.2473    2.7603 O.2       1 <0>        -0.5623
     20 N3          3.0476   -5.2667    4.9706 N.am      1 <0>        -0.7239
     21 C15         4.4752   -5.5370    5.1579 C.3       1 <0>         0.2073
     22 C16         4.7791   -5.6344    6.6307 C.2       1 <0>        -0.2658
     23 C17         5.3317   -4.6248    7.4254 C.2       1 <0>         0.0675
     24 N4          5.4454   -5.0817    8.6461 N.2       1 <0>        -0.2959
     25 N5          4.9680   -6.3985    8.6668 N.pl3     1 <0>        -0.3716
     26 C18         4.5601   -6.7120    7.4192 C.2       1 <0>         0.1074
     27 C19         3.9699   -8.0278    6.9818 C.3       1 <0>        -0.0984
     28 C20         4.9154   -7.2779    9.8373 C.3       1 <0>         0.0975
     29 N6          0.9578   -4.7657    1.0422 N.pl3     1 <0>        -0.7003
     30 C21        -3.1582   -4.9958    1.9667 C.3       1 <0>         0.4567
     31 F1         -2.8949   -6.3637    2.0957 F         1 <0>        -0.1731
     32 F2         -3.6307   -4.4951    3.1846 F         1 <0>        -0.1591
     33 F3         -4.1248   -4.7985    0.9748 F         1 <0>        -0.1726
     34 H3          1.0042    1.8801    0.0026 H         1 <0>         0.0735
     35 H4         -0.5455    1.8639   -0.8728 H         1 <0>         0.0689
     36 H5         -0.5286    1.8543    0.9071 H         1 <0>         0.0681
     37 H6         -0.0064   -0.1436   -2.1312 H         1 <0>         0.1264
     38 H7          0.0266   -2.6057   -2.1448 H         1 <0>         0.1276
     39 H8          0.0491   -2.6289    2.1200 H         1 <0>         0.1234
     40 H9          0.0245   -0.1667    2.1335 H         1 <0>         0.1229
     41 H10        -2.0168   -4.4947   -0.5602 H         1 <0>         0.1232
     42 H11        -1.3257   -5.8991    0.2847 H         1 <0>         0.1033
     43 H12         0.3219   -4.7782    5.6225 H         1 <0>         0.1924
     44 H13         2.4652   -5.1799    5.7415 H         1 <0>         0.3982
     45 H14         4.7339   -6.4771    4.6706 H         1 <0>         0.0713
     46 H15         5.0588   -4.7277    4.7192 H         1 <0>         0.0748
     47 H16         5.6156   -3.6384    7.0895 H         1 <0>         0.1848
     48 H17         4.7690   -8.6952    6.6593 H         1 <0>         0.0837
     49 H18         3.4329   -8.4803    7.8155 H         1 <0>         0.0730
     50 H19         3.2807   -7.8597    6.1542 H         1 <0>         0.0890
     51 H20         3.9590   -7.1510   10.3445 H         1 <0>         0.0769
     52 H21         5.0226   -8.3146    9.5180 H         1 <0>         0.0878
     53 H22         5.7256   -7.0225   10.5203 H         1 <0>         0.0915
     54 H23         1.8446   -5.1068    0.8472 H         1 <0>         0.4385
@<TRIPOS>BOND
     1    1    2 1
     2    1   34 1
     3    1   35 1
     4    1   36 1
     5    2    7 ar
     6    2    3 ar
     7    3    4 ar
     8    3   37 1
     9    4    5 ar
    10    4   38 1
    11    5    6 ar
    12    5    8 1
    13    6    7 ar
    14    6   39 1
    15    7   40 1
    16    8    9 1
    17    8   29 1
    18    8   10 1
    19   10   11 1
    20   10   41 1
    21   10   42 1
    22   11   12 1
    23   11   13 1
    24   11   30 1
    25   13   17 1
    26   13   14 1
    27   14   15 2
    28   14   29 1
    29   15   16 1
    30   15   18 1
    31   16   17 2
    32   16   43 1
    33   18   19 2
    34   18   20 am
    35   20   21 1
    36   20   44 1
    37   21   22 1
    38   21   45 1
    39   21   46 1
    40   22   26 2
    41   22   23 1
    42   23   24 2
    43   23   47 1
    44   24   25 1
    45   25   26 1
    46   25   28 1
    47   26   27 1
    48   27   48 1
    49   27   49 1
    50   27   50 1
    51   28   51 1
    52   28   52 1
    53   28   53 1
    54   29   54 1
    55   30   31 1
    56   30   32 1
    57   30   33 1
@<TRIPOS>MOLECULE
ZINC64790049
   46    49     0     0     0
SMALL
USER_CHARGES

@<TRIPOS>ATOM
      1 C1         -0.0164    1.3605    0.0095 C.ar      1 <0>        -0.1536
      2 C2          1.1694    2.0829    0.0021 C.ar      1 <0>        -0.0466
      3 C3          2.3854    1.4356   -0.0135 C.ar      1 <0>        -0.1703
      4 C4          2.4306    0.0439   -0.0214 C.ar      1 <0>         0.2050
      5 C5          1.2276   -0.6862   -0.0134 C.ar      1 <0>        -0.1449
      6 C6          0.0021   -0.0041    0.0020 C.ar      1 <0>        -0.0413
      7 C7          1.2587   -2.1035   -0.0217 C.2       1 <0>         0.0434
      8 C8          2.4661   -2.7449   -0.0376 C.2       1 <0>        -0.1368
      9 C9          3.7009   -1.9558   -0.0457 C.2       1 <0>         0.5484
     10 N1          3.6449   -0.6105   -0.0366 N.am      1 <0>        -0.6287
     11 O1          4.7811   -2.5186   -0.0599 O.2       1 <0>        -0.4873
     12 C10         2.5255   -4.2250   -0.0462 C.2       1 <0>         0.3134
     13 N2          3.6490   -4.9659   -0.0563 N.2       1 <0>        -0.5041
     14 C11         3.3477   -6.2328   -0.0617 C.2       1 <0>         0.2893
     15 O2          2.0137   -6.3528   -0.0552 O.3       1 <0>        -0.0990
     16 N3          1.4920   -5.0324   -0.0393 N.2       1 <0>        -0.3412
     17 C12         4.3339   -7.3721   -0.0734 C.3       1 <0>        -0.0211
     18 C13         4.6755   -7.7657    1.3651 C.3       1 <0>        -0.1390
     19 C14         5.6618   -8.9051    1.3535 C.2       1 <0>         0.5209
     20 O3          6.0530   -9.3577    0.2985 O.2       1 <0>        -0.5328
     21 N4          6.1092   -9.4211    2.5154 N.am      1 <0>        -0.7268
     22 C15         7.0680  -10.5287    2.5041 C.3       1 <0>         0.1606
     23 C16         7.4044  -10.9163    3.9210 C.ar      1 <0>        -0.1083
     24 C17         8.4605  -10.3063    4.5720 C.ar      1 <0>        -0.0867
     25 C18         8.7695  -10.6615    5.8715 C.ar      1 <0>        -0.1117
     26 C19         8.0218  -11.6276    6.5207 C.ar      1 <0>        -0.0266
     27 C20         6.9650  -12.2377    5.8687 C.ar      1 <0>        -0.1119
     28 C21         6.6534  -11.8777    4.5711 C.ar      1 <0>        -0.0869
     29 Cl1         8.4097  -12.0746    8.1527 Cl        1 <0>        -0.0646
     30 H1         -0.9615    1.8830    0.0259 H         1 <0>         0.1348
     31 H2          1.1382    3.1625    0.0082 H         1 <0>         0.1368
     32 H3          3.3020    2.0066   -0.0199 H         1 <0>         0.1385
     33 H4         -0.9252   -0.5577    0.0083 H         1 <0>         0.1399
     34 H5          0.3392   -2.6700   -0.0153 H         1 <0>         0.1531
     35 H6          3.8961   -8.2265   -0.5896 H         1 <0>         0.1146
     36 H7          5.2418   -7.0615   -0.5904 H         1 <0>         0.1245
     37 H8          5.1134   -6.9114    1.8813 H         1 <0>         0.1083
     38 H9          3.7676   -8.0764    1.8822 H         1 <0>         0.1047
     39 H10         5.7963   -9.0590    3.3592 H         1 <0>         0.4042
     40 H11         6.6301  -11.3830    1.9879 H         1 <0>         0.0816
     41 H12         7.9759  -10.2180    1.9870 H         1 <0>         0.0817
     42 H13         9.0443   -9.5524    4.0649 H         1 <0>         0.1355
     43 H14         9.5948  -10.1851    6.3798 H         1 <0>         0.1369
     44 H15         6.3812  -12.9922    6.3749 H         1 <0>         0.1368
     45 H16         5.8255  -12.3505    4.0637 H         1 <0>         0.1353
     46 H17         4.4672   -0.0961   -0.0417 H         1 <0>         0.4221
@<TRIPOS>BOND
     1    1    6 ar
     2    1    2 ar
     3    1   30 1
     4    2    3 ar
     5    2   31 1
     6    3    4 ar
     7    3   32 1
     8    4   10 1
     9    4    5 ar
    10    5    6 ar
    11    5    7 1
    12    6   33 1
    13    7    8 2
    14    7   34 1
    15    8    9 1
    16    8   12 1
    17    9   10 am
    18    9   11 2
    19   10   46 1
    20   12   16 2
    21   12   13 1
    22   13   14 2
    23   14   15 1
    24   14   17 1
    25   15   16 1
    26   17   18 1
    27   17   35 1
    28   17   36 1
    29   18   19 1
    30   18   37 1
    31   18   38 1
    32   19   20 2
    33   19   21 am
    34   21   22 1
    35   21   39 1
    36   22   23 1
    37   22   40 1
    38   22   41 1
    39   23   28 ar
    40   23   24 ar
    41   24   25 ar
    42   24   42 1
    43   25   26 ar
    44   25   43 1
    45   26   27 ar
    46   26   29 1
    47   27   28 ar
    48   27   44 1
    49   28   45 1
@<TRIPOS>MOLECULE
ZINC03334848
   52    55     0     0     0
SMALL
USER_CHARGES
2-(4-benzyl-2,5-dioxo-imidazolidin-1-yl)-N-(3-cyano-6-methyl-4,5,6,7-tetrahydrobenzothiophen-2-yl)-acetamide
@<TRIPOS>ATOM
      1 C1         -0.2100    0.8496    2.4939 C.3       1 <0>        -0.1481
      2 C2         -0.7423    1.5864    1.2631 C.3       1 <0>        -0.0870
      3 H1         -0.5792    2.6581    1.3775 H         1 <0>         0.0775
      4 C3         -2.2406    1.3098    1.1056 C.3       1 <0>        -0.1149
      5 C4         -2.8307    2.2290    0.0346 C.3       1 <0>        -0.0618
      6 C5         -1.9962    2.1025   -1.2340 C.2       1 <0>        -0.0608
      7 C6         -0.7474    1.5870   -1.1968 C.2       1 <0>        -0.2040
      8 S1         -0.1869    1.6395   -2.8753 S.3       1 <0>         0.2555
      9 C7         -1.5894    2.3363   -3.6166 C.2       1 <0>         0.0882
     10 C8         -2.4572    2.5115   -2.5491 C.2       1 <0>        -0.1250
     11 C9         -3.7604    3.0746   -2.7368 C.1       1 <0>         0.2671
     12 N1         -4.7942    3.5214   -2.8856 N.1       1 <0>        -0.4216
     13 N2         -1.7946    2.6445   -4.9543 N.am      1 <0>        -0.6159
     14 C10        -0.8253    2.4005   -5.8584 C.2       1 <0>         0.4985
     15 O1          0.2263    1.9117   -5.5031 O.2       1 <0>        -0.4818
     16 C11        -1.0480    2.7351   -7.3108 C.3       1 <0>         0.1077
     17 N3          0.1447    2.3778   -8.0828 N.am      1 <0>        -0.5645
     18 C12         1.1750    3.2148   -8.3151 C.2       1 <0>         0.5322
     19 O2          1.2856    4.3620   -7.9389 O.2       1 <0>        -0.4550
     20 C13         2.1677    2.4229   -9.1428 C.3       1 <0>         0.1033
     21 H2          2.3177    2.8967  -10.1129 H         1 <0>         0.1333
     22 N4          1.5172    1.1109   -9.3018 N.am      1 <0>        -0.7157
     23 C14         0.3430    1.1819   -8.6491 C.2       1 <0>         0.7083
     24 O3         -0.4491    0.2626   -8.5814 O.2       1 <0>        -0.5352
     25 C15         3.5001    2.2772   -8.4049 C.3       1 <0>        -0.0791
     26 C16         4.4676    1.5034   -9.2630 C.ar      1 <0>        -0.0908
     27 C17         4.5320    0.1263   -9.1624 C.ar      1 <0>        -0.1153
     28 C18         5.4157   -0.5840   -9.9533 C.ar      1 <0>        -0.1162
     29 C19         6.2430    0.0839  -10.8367 C.ar      1 <0>        -0.1171
     30 C20         6.1823    1.4615  -10.9336 C.ar      1 <0>        -0.1162
     31 C21         5.2946    2.1713  -10.1468 C.ar      1 <0>        -0.1117
     32 C22        -0.0127    1.0858    0.0080 C.3       1 <0>        -0.0319
     33 H3          0.8586    1.0385    2.5964 H         1 <0>         0.0582
     34 H4         -0.7290    1.2063    3.3835 H         1 <0>         0.0588
     35 H5         -0.3804   -0.2207    2.3784 H         1 <0>         0.0575
     36 H6         -2.7439    1.4907    2.0553 H         1 <0>         0.0723
     37 H7         -2.3874    0.2705    0.8116 H         1 <0>         0.0687
     38 H8         -2.8079    3.2606    0.3856 H         1 <0>         0.0806
     39 H9         -3.8598    1.9366   -0.1743 H         1 <0>         0.0753
     40 H10        -2.6356    3.0355   -5.2385 H         1 <0>         0.4241
     41 H11        -1.9047    2.1749   -7.6855 H         1 <0>         0.1397
     42 H12        -1.2400    3.8033   -7.4123 H         1 <0>         0.1377
     43 H13         1.8670    0.3451   -9.7837 H         1 <0>         0.4434
     44 H14         3.9098    3.2655   -8.1962 H         1 <0>         0.1020
     45 H15         3.3399    1.7449   -7.4674 H         1 <0>         0.0901
     46 H16         3.8890   -0.3951   -8.4688 H         1 <0>         0.1231
     47 H17         5.4629   -1.6603   -9.8778 H         1 <0>         0.1243
     48 H18         6.9365   -0.4706  -11.4514 H         1 <0>         0.1231
     49 H19         6.8286    1.9833  -11.6237 H         1 <0>         0.1243
     50 H20         5.2474    3.2476  -10.2222 H         1 <0>         0.1254
     51 H21         0.0021   -0.0041    0.0020 H         1 <0>         0.0859
     52 H22         1.0085    1.4669    0.0003 H         1 <0>         0.0834
@<TRIPOS>BOND
     1    1    2 1
     2    1   33 1
     3    1   34 1
     4    1   35 1
     5    2    3 1
     6    2   32 1
     7    2    4 1
     8    4    5 1
     9    4   36 1
    10    4   37 1
    11    5    6 1
    12    5   38 1
    13    5   39 1
    14    6   10 1
    15    6    7 2
    16    7    8 1
    17    7   32 1
    18    8    9 1
    19    9   10 2
    20    9   13 1
    21   10   11 1
    22   11   12 3
    23   13   14 am
    24   13   40 1
    25   14   15 2
    26   14   16 1
    27   16   17 1
    28   16   41 1
    29   16   42 1
    30   17   23 am
    31   17   18 am
    32   18   19 2
    33   18   20 1
    34   20   21 1
    35   20   22 1
    36   20   25 1
    37   22   23 am
    38   22   43 1
    39   23   24 2
    40   25   26 1
    41   25   44 1
    42   25   45 1
    43   26   31 ar
    44   26   27 ar
    45   27   28 ar
    46   27   46 1
    47   28   29 ar
    48   28   47 1
    49   29   30 ar
    50   29   48 1
    51   30   31 ar
    52   30   49 1
    53   31   50 1
    54   32   51 1
    55   32   52 1
@<TRIPOS>MOLECULE
ZINC14347128
   58    61     0     0     0
SMALL
USER_CHARGES
(4R)-N-[4-[[(3S,5S)-3,5-dimethyl-1-piperidyl]sulfonyl]phenyl]-2-oxo-3,4-dihydro-1H-quinoline-4-carboxamide
@<TRIPOS>ATOM
      1 C1         -0.7333    0.3547    3.2693 C.3       1 <0>        -0.1546
      2 C2         -2.0387    1.0670    3.6292 C.3       1 <0>        -0.1068
      3 H1         -2.6703    0.3965    4.2119 H         1 <0>         0.0836
      4 C3         -1.7272    2.3192    4.4521 C.3       1 <0>        -0.1071
      5 C4         -0.8128    3.2460    3.6476 C.3       1 <0>        -0.1103
      6 H2          0.1059    2.7185    3.3911 H         1 <0>         0.0787
      7 C5         -1.5304    3.6768    2.3646 C.3       1 <0>         0.1241
      8 N1         -1.9618    2.4750    1.6377 N.pl3     1 <0>        -0.9941
      9 C6         -2.7749    1.4758    2.3443 C.3       1 <0>         0.1236
     10 S1         -1.5454    2.2542    0.0502 S.o2      1 <0>         2.6894
     11 O1         -1.2926    3.5453   -0.4868 O.2       1 <0>        -0.9542
     12 O2         -2.5133    1.3744   -0.5050 O.2       1 <0>        -0.9547
     13 C7         -0.0096    1.3907    0.0298 C.ar      1 <0>        -0.6912
     14 C8          1.1791    2.0973    0.0247 C.ar      1 <0>         0.0012
     15 C9          2.3845    1.4235    0.0030 C.ar      1 <0>        -0.1409
     16 C10         2.4020    0.0350   -0.0139 C.ar      1 <0>         0.2026
     17 C11         1.2065   -0.6716   -0.0088 C.ar      1 <0>        -0.1639
     18 C12         0.0044    0.0081    0.0130 C.ar      1 <0>         0.0033
     19 N2          3.6216   -0.6506   -0.0364 N.am      1 <0>        -0.6758
     20 C13         4.6693   -0.1400   -0.7132 C.2       1 <0>         0.5144
     21 O3          4.5815    0.9525   -1.2325 O.2       1 <0>        -0.4905
     22 C14         5.9499   -0.9266   -0.8248 C.3       1 <0>        -0.0602
     23 H3          5.7512   -1.8750   -1.3238 H         1 <0>         0.1304
     24 C15         6.5069   -1.1941    0.5739 C.3       1 <0>        -0.1353
     25 C16         7.0433    0.0820    1.1644 C.2       1 <0>         0.5183
     26 O4          6.9333    0.2839    2.3553 O.2       1 <0>        -0.5183
     27 N3          7.6437    1.0015    0.3867 N.am      1 <0>        -0.6597
     28 C17         7.7637    0.7949   -0.9909 C.ar      1 <0>         0.1738
     29 C18         6.9546   -0.1391   -1.6249 C.ar      1 <0>        -0.1116
     30 C19         7.0721   -0.3434   -2.9851 C.ar      1 <0>        -0.0681
     31 C20         7.9953    0.3818   -3.7166 C.ar      1 <0>        -0.1386
     32 C21         8.8024    1.3124   -3.0887 C.ar      1 <0>        -0.0784
     33 C22         8.6897    1.5208   -1.7277 C.ar      1 <0>        -0.1511
     34 C23        -0.4755    4.4821    4.4837 C.3       1 <0>        -0.1485
     35 H4         -0.2118    0.0685    4.1827 H         1 <0>         0.0567
     36 H5         -0.9557   -0.5370    2.6832 H         1 <0>         0.0541
     37 H6         -0.1025    1.0251    2.6856 H         1 <0>         0.0612
     38 H7         -1.2285    2.0308    5.3775 H         1 <0>         0.0656
     39 H8         -2.6557    2.8395    4.6871 H         1 <0>         0.0661
     40 H9         -0.8488    4.2557    1.7414 H         1 <0>         0.0899
     41 H10        -2.4005    4.2824    2.6182 H         1 <0>         0.0775
     42 H11        -3.7443    1.9056    2.5964 H         1 <0>         0.0776
     43 H12        -2.9146    0.6021    1.7078 H         1 <0>         0.0909
     44 H13         1.1648    3.1771    0.0379 H         1 <0>         0.1417
     45 H14         3.3126    1.9759   -0.0009 H         1 <0>         0.1460
     46 H15         1.2168   -1.7515   -0.0223 H         1 <0>         0.1371
     47 H16        -0.9257   -0.5409    0.0166 H         1 <0>         0.1431
     48 H17         3.7129   -1.4934    0.4351 H         1 <0>         0.4153
     49 H18         5.7128   -1.5823    1.2117 H         1 <0>         0.1127
     50 H19         7.3095   -1.9288    0.5095 H         1 <0>         0.1243
     51 H20         7.9953    1.8133    0.7845 H         1 <0>         0.4146
     52 H21         6.4429   -1.0694   -3.4783 H         1 <0>         0.1292
     53 H22         8.0857    0.2210   -4.7808 H         1 <0>         0.1294
     54 H23         9.5221    1.8769   -3.6629 H         1 <0>         0.1315
     55 H24         9.3210    2.2473   -1.2376 H         1 <0>         0.1309
     56 H25        -1.3945    5.0087    4.7410 H         1 <0>         0.0582
     57 H26         0.0351    4.1751    5.3965 H         1 <0>         0.0589
     58 H27         0.1734    5.1433    3.9093 H         1 <0>         0.0580
@<TRIPOS>BOND
     1    1    2 1
     2    1   35 1
     3    1   36 1
     4    1   37 1
     5    2    3 1
     6    2    9 1
     7    2    4 1
     8    4    5 1
     9    4   38 1
    10    4   39 1
    11    5    6 1
    12    5    7 1
    13    5   34 1
    14    7    8 1
    15    7   40 1
    16    7   41 1
    17    8    9 1
    18    8   10 1
    19    9   42 1
    20    9   43 1
    21   10   11 2
    22   10   12 2
    23   10   13 1
    24   13   18 ar
    25   13   14 ar
    26   14   15 ar
    27   14   44 1
    28   15   16 ar
    29   15   45 1
    30   16   17 ar
    31   16   19 1
    32   17   18 ar
    33   17   46 1
    34   18   47 1
    35   19   20 am
    36   19   48 1
    37   20   21 2
    38   20   22 1
    39   22   23 1
    40   22   29 1
    41   22   24 1
    42   24   25 1
    43   24   49 1
    44   24   50 1
    45   25   26 2
    46   25   27 am
    47   27   28 1
    48   27   51 1
    49   28   33 ar
    50   28   29 ar
    51   29   30 ar
    52   30   31 ar
    53   30   52 1
    54   31   32 ar
    55   31   53 1
    56   32   33 ar
    57   32   54 1
    58   33   55 1
    59   34   56 1
    60   34   57 1
    61   34   58 1
@<TRIPOS>MOLECULE
ZINC31735878
   46    48     0     0     0
SMALL
USER_CHARGES
4-bromo-3,5-dimethoxy-N-[(1R)-1-(3-oxo-4H-1,4-benzoxazin-6-yl)ethyl]benzamide
@<TRIPOS>ATOM
      1 C1          4.4122   -0.0297   -5.1148 C.3       1 <0>        -0.1601
      2 C2          4.8476   -0.3857   -3.6919 C.3       1 <0>         0.1891
      3 H1          4.8609   -1.4756   -3.5438 H         1 <0>         0.1010
      4 C3          3.9054    0.2522   -2.7038 C.ar      1 <0>        -0.0802
      5 C4          4.0494    1.5882   -2.3776 C.ar      1 <0>        -0.1095
      6 C5          3.1883    2.1814   -1.4723 C.ar      1 <0>        -0.0985
      7 C6          2.1785    1.4349   -0.8906 C.ar      1 <0>         0.0754
      8 C7          2.0337    0.0879   -1.2189 C.ar      1 <0>         0.1070
      9 C8          2.8990   -0.5003   -2.1264 C.ar      1 <0>        -0.1118
     10 N1          1.0072   -0.6570   -0.6210 N.am      1 <0>        -0.6738
     11 C9          0.0021   -0.0041    0.0020 C.2       1 <0>         0.4925
     12 O1         -0.8806   -0.6281    0.5522 O.2       1 <0>        -0.5081
     13 C10        -0.0184    1.5033    0.0103 C.3       1 <0>         0.0463
     14 O2          1.3218    2.0021    0.0002 O.3       1 <0>        -0.3012
     15 N2          6.2071    0.1084   -3.4593 N.am      1 <0>        -0.7300
     16 C11         7.2674   -0.6357   -3.8315 C.2       1 <0>         0.5631
     17 O3          7.0957   -1.7167   -4.3603 O.2       1 <0>        -0.5275
     18 C12         8.6391   -0.1372   -3.5967 C.ar      1 <0>        -0.0388
     19 C13         8.8382    1.1061   -2.9951 C.ar      1 <0>        -0.2120
     20 C14        10.1246    1.5674   -2.7726 C.ar      1 <0>         0.1902
     21 C15        11.2154    0.7997   -3.1571 C.ar      1 <0>        -0.1457
     22 C16        11.0215   -0.4355   -3.7603 C.ar      1 <0>         0.1900
     23 C17         9.7383   -0.9061   -3.9814 C.ar      1 <0>        -0.1830
     24 O4         12.0928   -1.1837   -4.1346 O.3       1 <0>        -0.2951
     25 C18        11.8204   -2.4442   -4.7501 C.3       1 <0>         0.0179
     26 Br1        12.9701    1.4380   -2.8580 Br        1 <0>        -0.0119
     27 O5         10.3196    2.7760   -2.1820 O.3       1 <0>        -0.2948
     28 C19         9.1526    3.5130   -1.8119 C.3       1 <0>         0.0172
     29 H2          5.1000   -0.4953   -5.8360 H         1 <0>         0.0683
     30 H3          4.4322    1.0628   -5.2418 H         1 <0>         0.0631
     31 H4          3.3914   -0.4006   -5.2895 H         1 <0>         0.0710
     32 H5          4.8376    2.1707   -2.8313 H         1 <0>         0.1315
     33 H6          3.3039    3.2250   -1.2195 H         1 <0>         0.1432
     34 H7          2.7883   -1.5437   -2.3821 H         1 <0>         0.1373
     35 H8          1.0285   -1.7560   -0.6637 H         1 <0>         0.4436
     36 H9         -0.5504    1.8677   -0.8809 H         1 <0>         0.1028
     37 H10        -0.5333    1.8580    0.9153 H         1 <0>         0.1498
     38 H11         6.3624    1.0867   -2.9809 H         1 <0>         0.4167
     39 H12         7.9900    1.7060   -2.7000 H         1 <0>         0.1394
     40 H13         9.5882   -1.8669   -4.4514 H         1 <0>         0.1530
     41 H14        12.7686   -2.9422   -5.0010 H         1 <0>         0.1106
     42 H15        11.2356   -2.2852   -5.6681 H         1 <0>         0.0637
     43 H16        11.2473   -3.0754   -4.0550 H         1 <0>         0.0636
     44 H17         9.4517    4.4645   -1.3480 H         1 <0>         0.1108
     45 H18         8.5602    2.9257   -1.0948 H         1 <0>         0.0622
     46 H19         8.5477    3.7160   -2.7079 H         1 <0>         0.0618
@<TRIPOS>BOND
     1    1    2 1
     2    1   29 1
     3    1   30 1
     4    1   31 1
     5    2    3 1
     6    2    4 1
     7    2   15 1
     8    4    9 ar
     9    4    5 ar
    10    5    6 ar
    11    5   32 1
    12    6    7 ar
    13    6   33 1
    14    7   14 1
    15    7    8 ar
    16    8    9 ar
    17    8   10 1
    18    9   34 1
    19   10   11 am
    20   10   35 1
    21   11   12 2
    22   11   13 1
    23   13   14 1
    24   13   36 1
    25   13   37 1
    26   15   16 am
    27   15   38 1
    28   16   17 2
    29   16   18 1
    30   18   23 ar
    31   18   19 ar
    32   19   20 ar
    33   19   39 1
    34   20   21 ar
    35   20   27 1
    36   21   22 ar
    37   21   26 1
    38   22   23 ar
    39   22   24 1
    40   23   40 1
    41   24   25 1
    42   25   41 1
    43   25   42 1
    44   25   43 1
    45   27   28 1
    46   28   44 1
    47   28   45 1
    48   28   46 1
@<TRIPOS>MOLECULE
ZINC00674141
   54    57     0     0     0
SMALL
USER_CHARGES

@<TRIPOS>ATOM
      1 C1         -0.0184    1.5028    0.0103 C.3       1 <0>        -0.1205
      2 C2          0.0021   -0.0041    0.0020 C.ar      1 <0>        -0.0737
      3 C3          0.0057   -0.6887   -1.1989 C.ar      1 <0>        -0.1182
      4 C4          0.0245   -2.0709   -1.2065 C.ar      1 <0>        -0.0964
      5 C5          0.0400   -2.7685   -0.0132 C.ar      1 <0>        -0.1106
      6 C6          0.0373   -2.0839    1.1877 C.ar      1 <0>        -0.0987
      7 C7          0.0229   -0.7016    1.1953 C.ar      1 <0>        -0.1183
      8 C8          0.0595   -4.2753   -0.0215 C.3       1 <0>         0.2035
      9 H1         -0.2923   -4.6406   -0.9863 H         1 <0>         0.0878
     10 C9          1.4874   -4.7731    0.2279 C.3       1 <0>        -0.1501
     11 C10         1.5274   -6.3036    0.1526 C.3       1 <0>         0.1299
     12 H2          1.3733   -6.6225   -0.8782 H         1 <0>         0.1339
     13 N1          0.4623   -6.8482    0.9994 N.pl3     1 <0>        -0.3964
     14 C11        -0.6209   -6.1258    1.4132 C.2       1 <0>         0.3652
     15 C12        -1.3937   -6.9264    2.1733 C.2       1 <0>        -0.2652
     16 C13        -0.7686   -8.1926    2.2321 C.2       1 <0>         0.0682
     17 N2          0.3452   -8.1349    1.5232 N.2       1 <0>        -0.2537
     18 C14        -1.2728   -9.3753    2.9596 C.2       1 <0>         0.6004
     19 O1         -2.3157   -9.3079    3.5807 O.2       1 <0>        -0.5231
     20 N3         -0.5766  -10.5290    2.9349 N.am      1 <0>        -0.7117
     21 C15        -1.0766  -11.7019    3.6564 C.3       1 <0>         0.2027
     22 C16        -0.1206  -12.8518    3.4697 C.2       1 <0>        -0.2675
     23 C17        -0.2718  -13.9094    2.5670 C.2       1 <0>         0.0690
     24 N4          0.7571  -14.7072    2.6961 N.2       1 <0>        -0.2956
     25 N5          1.5969  -14.1817    3.6865 N.pl3     1 <0>        -0.3712
     26 C18         1.0388  -13.0404    4.1416 C.2       1 <0>         0.1098
     27 C19         1.6036  -12.1393    5.2094 C.3       1 <0>        -0.0989
     28 C20         2.8607  -14.7649    4.1435 C.3       1 <0>         0.0975
     29 N6         -0.8149   -4.7883    1.0516 N.pl3     1 <0>        -0.7255
     30 C21         2.8856   -6.8056    0.6468 C.3       1 <0>         0.4557
     31 F1          3.0789   -6.3999    1.9716 F         1 <0>        -0.1725
     32 F2          2.9199   -8.2025    0.5771 F         1 <0>        -0.1606
     33 F3          3.8999   -6.2737   -0.1566 F         1 <0>        -0.1726
     34 H3          1.0042    1.8801    0.0026 H         1 <0>         0.0739
     35 H4         -0.5455    1.8639   -0.8728 H         1 <0>         0.0691
     36 H5         -0.5286    1.8543    0.9071 H         1 <0>         0.0689
     37 H6         -0.0064   -0.1436   -2.1312 H         1 <0>         0.1268
     38 H7          0.0266   -2.6057   -2.1448 H         1 <0>         0.1268
     39 H8          0.0491   -2.6289    2.1200 H         1 <0>         0.1250
     40 H9          0.0245   -0.1667    2.1335 H         1 <0>         0.1258
     41 H10         2.1533   -4.3559   -0.5275 H         1 <0>         0.1205
     42 H11         1.8158   -4.4505    1.2160 H         1 <0>         0.0996
     43 H12        -2.3221   -6.6504    2.6512 H         1 <0>         0.1626
     44 H13         0.2556  -10.5828    2.4394 H         1 <0>         0.4078
     45 H14        -1.1599  -11.4674    4.7176 H         1 <0>         0.0760
     46 H15        -2.0567  -11.9774    3.2671 H         1 <0>         0.0801
     47 H16        -1.0956  -14.0443    1.8818 H         1 <0>         0.1856
     48 H17         1.2364  -12.4577    6.1850 H         1 <0>         0.0848
     49 H18         2.6920  -12.1963    5.1945 H         1 <0>         0.0733
     50 H19         1.2909  -11.1123    5.0209 H         1 <0>         0.0883
     51 H20         3.6807  -14.3717    3.5424 H         1 <0>         0.0767
     52 H21         3.0220  -14.5080    5.1904 H         1 <0>         0.0880
     53 H22         2.8199  -15.8490    4.0375 H         1 <0>         0.0918
     54 H23        -1.4813   -4.2302    1.4820 H         1 <0>         0.4262
@<TRIPOS>BOND
     1    1    2 1
     2    1   34 1
     3    1   35 1
     4    1   36 1
     5    2    7 ar
     6    2    3 ar
     7    3    4 ar
     8    3   37 1
     9    4    5 ar
    10    4   38 1
    11    5    6 ar
    12    5    8 1
    13    6    7 ar
    14    6   39 1
    15    7   40 1
    16    8    9 1
    17    8   29 1
    18    8   10 1
    19   10   11 1
    20   10   41 1
    21   10   42 1
    22   11   12 1
    23   11   13 1
    24   11   30 1
    25   13   17 1
    26   13   14 1
    27   14   15 2
    28   14   29 1
    29   15   16 1
    30   15   43 1
    31   16   17 2
    32   16   18 1
    33   18   19 2
    34   18   20 am
    35   20   21 1
    36   20   44 1
    37   21   22 1
    38   21   45 1
    39   21   46 1
    40   22   26 2
    41   22   23 1
    42   23   24 2
    43   23   47 1
    44   24   25 1
    45   25   26 1
    46   25   28 1
    47   26   27 1
    48   27   48 1
    49   27   49 1
    50   27   50 1
    51   28   51 1
    52   28   52 1
    53   28   53 1
    54   29   54 1
    55   30   31 1
    56   30   32 1
    57   30   33 1
@<TRIPOS>MOLECULE
ZINC64773913
   51    54     0     0     0
SMALL
USER_CHARGES

@<TRIPOS>ATOM
      1 C1          3.6684    1.3233   -0.3828 C.3       1 <0>        -0.1190
      2 C2          3.2467   -0.1234   -0.3643 C.ar      1 <0>        -0.0736
      3 C3          3.2256   -0.8523   -1.5386 C.ar      1 <0>        -0.1208
      4 C4          2.8389   -2.1793   -1.5216 C.ar      1 <0>        -0.0929
      5 C5          2.4737   -2.7776   -0.3302 C.ar      1 <0>        -0.0918
      6 C6          2.4956   -2.0489    0.8444 C.ar      1 <0>        -0.0923
      7 C7          2.8865   -0.7231    0.8280 C.ar      1 <0>        -0.1206
      8 C8          2.0511   -4.2240   -0.3118 C.3       1 <0>        -0.0704
      9 S1          3.5048   -5.2753   -0.0432 S.3       1 <0>         0.0626
     10 C9          2.8535   -6.9125   -0.0475 C.2       1 <0>         0.4274
     11 N1          1.5521   -7.0495   -0.2339 N.2       1 <0>        -0.6363
     12 C10         0.9695   -8.2473   -0.3197 C.2       1 <0>         0.5395
     13 O1         -0.2320   -8.3635   -0.4650 O.2       1 <0>        -0.4490
     14 C11         1.8795   -9.4547   -0.2277 C.3       1 <0>        -0.2005
     15 H1          1.8282  -10.0058   -1.1668 H         1 <0>         0.1511
     16 C12         1.3676  -10.3561    0.8975 C.3       1 <0>        -0.0249
     17 H2          0.3125  -10.5777    0.7374 H         1 <0>         0.1279
     18 C13         2.1734  -11.6575    0.8864 C.3       1 <0>        -0.1380
     19 C14         3.6472  -11.3776    0.8298 C.2       1 <0>         0.5312
     20 O2          4.4163  -12.2545    1.1604 O.2       1 <0>        -0.4826
     21 N2          4.1519  -10.1991    0.4288 N.am      1 <0>        -0.6332
     22 C15         3.3344   -9.1641    0.0912 C.2       1 <0>         0.5037
     23 N3          3.7163   -7.9196    0.1330 N.2       1 <0>        -0.5672
     24 C16         1.5428   -9.6599    2.2225 C.ar      1 <0>        -0.1360
     25 C17         0.4475   -9.1119    2.8639 C.ar      1 <0>        -0.0621
     26 C18         0.6030   -8.4723    4.0795 C.ar      1 <0>        -0.1896
     27 C19         1.8586   -8.3798    4.6581 C.ar      1 <0>         0.1138
     28 C20         2.9610   -8.9318    4.0128 C.ar      1 <0>         0.0876
     29 C21         2.7975   -9.5757    2.7968 C.ar      1 <0>        -0.1226
     30 O3          4.1955   -8.8435    4.5766 O.3       1 <0>        -0.4811
     31 O4          2.0134   -7.7505    5.8537 O.3       1 <0>        -0.3041
     32 C22         0.8378   -7.2074    6.4579 C.3       1 <0>         0.0230
     33 H3          4.7462    1.3896   -0.2345 H         1 <0>         0.0735
     34 H4          3.4060    1.7659   -1.3437 H         1 <0>         0.0683
     35 H5          3.1579    1.8608    0.4163 H         1 <0>         0.0682
     36 H6          3.5110   -0.3849   -2.4695 H         1 <0>         0.1262
     37 H7          2.8217   -2.7486   -2.4392 H         1 <0>         0.1267
     38 H8          2.2100   -2.5163    1.7752 H         1 <0>         0.1261
     39 H9          2.9072   -0.1548    1.7462 H         1 <0>         0.1261
     40 H10         1.3341   -4.3828    0.4937 H         1 <0>         0.1097
     41 H11         1.5890   -4.4797   -1.2652 H         1 <0>         0.1100
     42 H12         1.9511  -12.2239    1.7907 H         1 <0>         0.1291
     43 H13         1.8875  -12.2481    0.0159 H         1 <0>         0.1286
     44 H14         5.1131  -10.0850    0.3654 H         1 <0>         0.4291
     45 H15        -0.5317   -9.1834    2.4140 H         1 <0>         0.1351
     46 H16        -0.2542   -8.0444    4.5781 H         1 <0>         0.1383
     47 H17         3.6509  -10.0083    2.2957 H         1 <0>         0.1367
     48 H18         4.4153   -9.5830    5.1597 H         1 <0>         0.3887
     49 H19         0.3962   -6.4662    5.7918 H         1 <0>         0.0578
     50 H20         0.1196   -8.0072    6.6387 H         1 <0>         0.0577
     51 H21         1.1009   -6.7347    7.4042 H         1 <0>         0.1048
@<TRIPOS>BOND
     1    1    2 1
     2    1   33 1
     3    1   34 1
     4    1   35 1
     5    2    7 ar
     6    2    3 ar
     7    3    4 ar
     8    3   36 1
     9    4    5 ar
    10    4   37 1
    11    5    6 ar
    12    5    8 1
    13    6    7 ar
    14    6   38 1
    15    7   39 1
    16    8    9 1
    17    8   40 1
    18    8   41 1
    19    9   10 1
    20   10   23 1
    21   10   11 2
    22   11   12 1
    23   12   13 2
    24   12   14 1
    25   14   15 1
    26   14   22 1
    27   14   16 1
    28   16   17 1
    29   16   18 1
    30   16   24 1
    31   18   19 1
    32   18   42 1
    33   18   43 1
    34   19   20 2
    35   19   21 am
    36   21   22 1
    37   21   44 1
    38   22   23 2
    39   24   29 ar
    40   24   25 ar
    41   25   26 ar
    42   25   45 1
    43   26   27 ar
    44   26   46 1
    45   27   28 ar
    46   27   31 1
    47   28   29 ar
    48   28   30 1
    49   29   47 1
    50   30   48 1
    51   31   32 1
    52   32   49 1
    53   32   50 1
    54   32   51 1
@<TRIPOS>MOLECULE
ZINC12441205
   62    65     0     0     0
SMALL
USER_CHARGES
(3S)-3-[2-[4-(2-hydroxyphenyl)piperazin-1-yl]-2-oxo-ethyl]-4-(p-tolylmethyl)piperazin-2-one
@<TRIPOS>ATOM
      1 C1          2.9445  -11.3872   -2.9057 C.3       1 <0>        -0.1318
      2 C2          1.8300  -10.6481   -2.2110 C.ar      1 <0>        -0.0412
      3 C3          0.6563  -10.3728   -2.8875 C.ar      1 <0>        -0.1161
      4 C4         -0.3679   -9.6991   -2.2488 C.ar      1 <0>        -0.0897
      5 C5         -0.2145   -9.2918   -0.9367 C.ar      1 <0>        -0.1707
      6 C6          0.9613   -9.5620   -0.2620 C.ar      1 <0>        -0.0838
      7 C7          1.9835  -10.2404   -0.8991 C.ar      1 <0>        -0.1152
      8 C8         -1.3291   -8.5527   -0.2420 C.3       1 <0>         0.0419
      9 C9         -1.5574   -6.7257   -1.8181 C.3       1 <0>        -0.0205
     10 C10        -1.0825   -5.2959   -2.0837 C.3       1 <0>         0.0860
     11 N1         -1.5040   -4.4184   -0.9955 N.am      1 <0>        -0.7105
     12 C11        -1.8802   -4.8762    0.2032 C.2       1 <0>         0.5231
     13 O1         -2.1861   -4.0754    1.0611 O.2       1 <0>        -0.4972
     14 C12        -1.9399   -6.3412    0.5317 C.3       1 <0>         0.0389
     15 H1         -2.9776   -6.6741    0.5135 H         1 <0>         0.1763
     16 C13        -1.3590   -6.5725    1.9282 C.3       1 <0>        -0.1679
     17 C14         0.0857   -6.1442    1.9486 C.2       1 <0>         0.5110
     18 O2          0.5880   -5.6578    0.9577 O.2       1 <0>        -0.5521
     19 N2          0.8195   -6.3018    3.0680 N.am      1 <0>        -0.5895
     20 C15         0.2283   -6.8838    4.2825 C.3       1 <0>         0.1006
     21 C16         1.1417   -8.0217    4.7655 C.3       1 <0>         0.0350
     22 N3          2.5096   -7.5105    4.9249 N.pl3     1 <0>        -0.4822
     23 C17         3.0639   -7.0621    3.6405 C.3       1 <0>         0.0469
     24 C18         2.2310   -5.8906    3.1095 C.3       1 <0>         0.1115
     25 C19         3.3370   -8.4690    5.5211 C.ar      1 <0>         0.0714
     26 C20         2.8864   -9.7706    5.6866 C.ar      1 <0>        -0.1545
     27 C21         3.7073  -10.7165    6.2713 C.ar      1 <0>        -0.1044
     28 C22         4.9738  -10.3667    6.7014 C.ar      1 <0>        -0.1163
     29 C23         5.4278   -9.0699    6.5444 C.ar      1 <0>        -0.1226
     30 C24         4.6133   -8.1172    5.9551 C.ar      1 <0>         0.1000
     31 O3          5.0581   -6.8412    5.8010 O.3       1 <0>        -0.4928
     32 H2          2.8222  -12.4591   -2.7497 H         1 <0>         0.0840
     33 H3          2.9146  -11.1697   -3.9734 H         1 <0>         0.0769
     34 H4          3.9029  -11.0675   -2.4965 H         1 <0>         0.0759
     35 H5          0.5381  -10.6875   -3.9139 H         1 <0>         0.1374
     36 H6         -1.2864   -9.4876   -2.7760 H         1 <0>         0.1332
     37 H7          1.0813   -9.2435    0.7629 H         1 <0>         0.1231
     38 H8          2.9022  -10.4515   -0.3720 H         1 <0>         0.1344
     39 H9         -2.2874   -8.8724   -0.6512 H         1 <0>         0.1428
     40 H10        -1.2991   -8.7702    0.8257 H         1 <0>         0.1319
     41 H11        -1.0944   -7.4037   -2.5351 H         1 <0>         0.1495
     42 H12        -2.6421   -6.7743   -1.9134 H         1 <0>         0.1413
     43 H13         0.0049   -5.2838   -2.1575 H         1 <0>         0.0983
     44 H14        -1.5125   -4.9401   -3.0200 H         1 <0>         0.1266
     45 H15        -1.5117   -3.4606   -1.1491 H         1 <0>         0.4256
     46 H16        -1.9214   -5.9887    2.6569 H         1 <0>         0.1570
     47 H17        -1.4278   -7.6309    2.1795 H         1 <0>         0.1292
     48 H18         0.1515   -6.1189    5.0552 H         1 <0>         0.0963
     49 H19        -0.7617   -7.2789    4.0547 H         1 <0>         0.0949
     50 H20         1.1384   -8.8299    4.0341 H         1 <0>         0.0500
     51 H21         0.7795   -8.3962    5.7229 H         1 <0>         0.1028
     52 H22         3.0338   -7.8837    2.9247 H         1 <0>         0.0430
     53 H23         4.0956   -6.7402    3.7821 H         1 <0>         0.1136
     54 H24         2.5657   -5.6286    2.1058 H         1 <0>         0.1043
     55 H25         2.3425   -5.0298    3.7689 H         1 <0>         0.0898
     56 H26         1.8960  -10.0455    5.3553 H         1 <0>         0.1269
     57 H27         3.3569  -11.7305    6.3963 H         1 <0>         0.1279
     58 H28         5.6103  -11.1081    7.1614 H         1 <0>         0.1306
     59 H29         6.4175   -8.7999    6.8818 H         1 <0>         0.1346
     60 H30         4.8591   -6.2622    6.5495 H         1 <0>         0.3937
     61 N4         -1.1425   -7.0987   -0.4509 N.4       1 <0>        -0.3964
     62 H31        -0.1497   -6.8681   -0.3269 H         1 <0>         0.4375
@<TRIPOS>BOND
     1    1    2 1
     2    1   32 1
     3    1   33 1
     4    1   34 1
     5    2    7 ar
     6    2    3 ar
     7    3    4 ar
     8    3   35 1
     9    4    5 ar
    10    4   36 1
    11    5    6 ar
    12    5    8 1
    13    6    7 ar
    14    6   37 1
    15    7   38 1
    16    8   39 1
    17    8   40 1
    18    8   61 1
    19    9   10 1
    20    9   41 1
    21    9   42 1
    22    9   61 1
    23   10   11 1
    24   10   43 1
    25   10   44 1
    26   11   12 am
    27   11   45 1
    28   12   13 2
    29   12   14 1
    30   14   15 1
    31   14   16 1
    32   14   61 1
    33   16   17 1
    34   16   46 1
    35   16   47 1
    36   17   18 2
    37   17   19 am
    38   19   24 1
    39   19   20 1
    40   20   21 1
    41   20   48 1
    42   20   49 1
    43   21   22 1
    44   21   50 1
    45   21   51 1
    46   22   23 1
    47   22   25 1
    48   23   24 1
    49   23   52 1
    50   23   53 1
    51   24   54 1
    52   24   55 1
    53   25   30 ar
    54   25   26 ar
    55   26   27 ar
    56   26   56 1
    57   27   28 ar
    58   27   57 1
    59   28   29 ar
    60   28   58 1
    61   29   30 ar
    62   29   59 1
    63   30   31 1
    64   31   60 1
    65   61   62 1
@<TRIPOS>MOLECULE
ZINC12483876
   69    73     0     0     0
SMALL
USER_CHARGES
(1S,2S,3S,4R,5R)-2-(cyclohexylmethylamino)-4-[4-(2-methoxyphenyl)piperazin-1-yl]-6,8-dioxabicyclo[3.2.1]octan-3-ol
@<TRIPOS>ATOM
      1 C1         -7.1664    7.4670    2.3417 C.3       1 <0>         0.0181
      2 O1         -6.2913    6.3500    2.1731 O.3       1 <0>        -0.2971
      3 C2         -6.2581    5.7718    0.9424 C.ar      1 <0>         0.1578
      4 C3         -7.0504    6.2683   -0.0794 C.ar      1 <0>        -0.2039
      5 C4         -7.0156    5.6795   -1.3302 C.ar      1 <0>        -0.0710
      6 C5         -6.1917    4.5945   -1.5649 C.ar      1 <0>        -0.1490
      7 C6         -5.3940    4.0962   -0.5520 C.ar      1 <0>        -0.1082
      8 C7         -5.4275    4.6784    0.7067 C.ar      1 <0>         0.0392
      9 N1         -4.6248    4.1724    1.7356 N.pl3     1 <0>        -0.4810
     10 C8         -4.9542    2.7684    2.0185 C.3       1 <0>         0.0608
     11 C9         -4.1127    2.2777    3.1989 C.3       1 <0>         0.0536
     12 N2         -2.6867    2.4263    2.8759 N.3       1 <0>        -0.5524
     13 C10        -2.3573    3.8302    2.5930 C.3       1 <0>         0.0348
     14 C11        -3.1989    4.3210    1.4126 C.3       1 <0>         0.0594
     15 C12        -1.8442    1.8951    3.9558 C.3       1 <0>         0.0344
     16 H1         -2.1012    2.4908    4.8441 H         1 <0>         0.0971
     17 C13        -0.3402    2.0287    3.5980 C.3       1 <0>         0.1108
     18 H2         -0.0641    3.0677    3.3652 H         1 <0>         0.0864
     19 C14        -0.0162    1.0911    2.4293 C.3       1 <0>        -0.0230
     20 H3          1.0606    1.0960    2.2048 H         1 <0>         0.1450
     21 C15        -0.5067   -0.3218    2.7858 C.3       1 <0>         0.0302
     22 H4         -0.1899   -1.0588    2.0332 H         1 <0>         0.1488
     23 C16        -0.0569   -0.6248    4.2342 C.3       1 <0>         0.0335
     24 O2         -1.1691   -0.1568    5.0538 O.3       1 <0>        -0.3463
     25 C17        -2.1488    0.4030    4.1599 C.3       1 <0>         0.2394
     26 H5         -3.1590    0.2189    4.5544 H         1 <0>         0.1508
     27 O3         -1.9509   -0.2592    2.8912 O.3       1 <0>        -0.3540
     28 N3         -0.7003    1.5596    1.2166 N.4       1 <0>        -0.5273
     29 C18        -0.0127    1.0858    0.0080 C.3       1 <0>        -0.0079
     30 C19        -0.7527    1.5927   -1.2315 C.3       1 <0>        -0.1084
     31 C20        -2.1465    0.9639   -1.2860 C.3       1 <0>        -0.1281
     32 C21        -2.8865    1.4708   -2.5256 C.3       1 <0>        -0.1196
     33 C22        -2.1028    1.0835   -3.7813 C.3       1 <0>        -0.1263
     34 C23        -0.7090    1.7122   -3.7268 C.3       1 <0>        -0.1224
     35 C24         0.0310    1.2054   -2.4872 C.3       1 <0>        -0.1117
     36 O4          0.4620    1.6781    4.7274 O.3       1 <0>        -0.5546
     37 H6         -7.0957    7.8353    3.3758 H         1 <0>         0.1048
     38 H7         -8.2009    7.1571    2.1327 H         1 <0>         0.0581
     39 H8         -6.8761    8.2684    1.6464 H         1 <0>         0.0573
     40 H9         -7.6952    7.1158    0.1006 H         1 <0>         0.1346
     41 H10        -7.6341    6.0681   -2.1257 H         1 <0>         0.1296
     42 H11        -6.1678    4.1378   -2.5433 H         1 <0>         0.1255
     43 H12        -4.7476    3.2515   -0.7393 H         1 <0>         0.1219
     44 H13        -6.0222    2.6856    2.2687 H         1 <0>         0.0932
     45 H14        -4.7368    2.1549    1.1318 H         1 <0>         0.0470
     46 H15        -4.3514    2.8736    4.0922 H         1 <0>         0.0658
     47 H16        -4.3370    1.2186    3.3940 H         1 <0>         0.0936
     48 H17        -2.5747    4.4437    3.4798 H         1 <0>         0.0747
     49 H18        -1.2894    3.9130    2.3427 H         1 <0>         0.0718
     50 H19        -2.9614    3.7253    0.5189 H         1 <0>         0.0391
     51 H20        -2.9756    5.3802    1.2172 H         1 <0>         0.0928
     52 H21         0.1147   -1.7055    4.3463 H         1 <0>         0.0959
     53 H22         0.8747   -0.0813    4.4501 H         1 <0>         0.1189
     54 H23        -1.7323    1.1788    1.2075 H         1 <0>         0.4597
     55 H24         1.0193    1.4665    0.0002 H         1 <0>         0.1269
     56 H25         0.0022   -0.0141    0.0020 H         1 <0>         0.1265
     57 H26        -0.8461    2.6875   -1.1807 H         1 <0>         0.0918
     58 H27        -2.0531   -0.1309   -1.3368 H         1 <0>         0.0784
     59 H28        -2.7099    1.2423   -0.3832 H         1 <0>         0.0578
     60 H29        -3.8886    1.0188   -2.5648 H         1 <0>         0.0723
     61 H30        -2.9799    2.5657   -2.4748 H         1 <0>         0.0663
     62 H31        -2.0094   -0.0114   -3.8321 H         1 <0>         0.0664
     63 H32        -2.6348    1.4479   -4.6725 H         1 <0>         0.0709
     64 H33        -0.1456    1.4337   -4.6296 H         1 <0>         0.0738
     65 H34        -0.8023    2.8071   -3.6761 H         1 <0>         0.0665
     66 H35         1.0331    1.6575   -2.4480 H         1 <0>         0.0731
     67 H36         0.1244    0.1106   -2.5380 H         1 <0>         0.0741
     68 H37         1.5590    1.7151    4.6556 H         1 <0>         0.4264
     69 H38        -0.7152    2.6594    1.2057 H         1 <0>         0.4366
@<TRIPOS>BOND
     1    1    2 1
     2    1   37 1
     3    1   38 1
     4    1   39 1
     5    2    3 1
     6    3    8 ar
     7    3    4 ar
     8    4    5 ar
     9    4   40 1
    10    5    6 ar
    11    5   41 1
    12    6    7 ar
    13    6   42 1
    14    7    8 ar
    15    7   43 1
    16    8    9 1
    17    9   14 1
    18    9   10 1
    19   10   11 1
    20   10   44 1
    21   10   45 1
    22   11   12 1
    23   11   46 1
    24   11   47 1
    25   12   13 1
    26   12   15 1
    27   13   14 1
    28   13   48 1
    29   13   49 1
    30   14   50 1
    31   14   51 1
    32   15   16 1
    33   15   25 1
    34   15   17 1
    35   17   18 1
    36   17   19 1
    37   17   36 1
    38   19   20 1
    39   19   21 1
    40   19   28 1
    41   21   22 1
    42   21   27 1
    43   21   23 1
    44   23   24 1
    45   23   52 1
    46   23   53 1
    47   24   25 1
    48   25   26 1
    49   25   27 1
    50   28   29 1
    51   28   54 1
    52   28   69 1
    53   29   30 1
    54   29   55 1
    55   29   56 1
    56   30   35 1
    57   30   31 1
    58   30   57 1
    59   31   32 1
    60   31   58 1
    61   31   59 1
    62   32   33 1
    63   32   60 1
    64   32   61 1
    65   33   34 1
    66   33   62 1
    67   33   63 1
    68   34   35 1
    69   34   64 1
    70   34   65 1
    71   35   66 1
    72   35   67 1
    73   36   68 1
@<TRIPOS>MOLECULE
ZINC39674471
   70    72     0     0     0
SMALL
USER_CHARGES

@<TRIPOS>ATOM
      1 C1         -0.0441    2.2241   -0.8877 C.3       1 <0>        -0.1547
      2 C2         -0.0260    0.7131   -0.6481 C.3       1 <0>        -0.1253
      3 C3         -1.4623    0.1933   -0.5600 C.3       1 <0>        -0.1211
      4 C4         -1.4441   -1.3177   -0.3204 C.3       1 <0>        -0.1010
      5 C5         -2.8804   -1.8374   -0.2323 C.3       1 <0>        -0.1054
      6 H1         -3.4279   -1.5460   -1.1287 H         1 <0>         0.1027
      7 C6         -3.5641   -1.2405    0.9994 C.3       1 <0>        -0.1521
      8 C7         -2.8649   -3.3401   -0.1194 C.2       1 <0>         0.5514
      9 O1         -1.8089   -3.9366   -0.1103 O.2       1 <0>        -0.5308
     10 N1         -4.0244   -4.0211   -0.0286 N.am      1 <0>        -0.6181
     11 C8         -5.4016   -3.4739   -0.0295 C.3       1 <0>         0.1154
     12 C9         -6.2194   -4.4766   -0.8741 C.3       1 <0>        -0.1170
     13 H2         -7.2175   -4.6011   -0.4542 H         1 <0>         0.1162
     14 C10        -5.4335   -5.7956   -0.7870 C.3       1 <0>        -0.0723
     15 C11        -4.2103   -5.4873    0.0884 C.3       1 <0>         0.1057
     16 C12        -4.9827   -6.2349   -2.1768 C.3       1 <0>        -0.1479
     17 C13        -4.2531   -7.5771   -2.0711 C.3       1 <0>        -0.0096
     18 N2         -5.1519   -8.5798   -1.4865 N.4       1 <0>        -0.5046
     19 C14        -5.5069   -8.1954   -0.1151 C.3       1 <0>        -0.0101
     20 C15        -6.2892   -6.8792   -0.1380 C.3       1 <0>        -0.1344
     21 C16        -6.3074   -4.0090   -2.3040 C.2       1 <0>         0.5187
     22 O2         -5.4024   -3.3622   -2.7873 O.2       1 <0>        -0.5121
     23 N3         -7.3919   -4.3094   -3.0457 N.am      1 <0>        -0.7273
     24 C17        -7.4775   -3.8548   -4.4358 C.3       1 <0>         0.2133
     25 H3         -7.0334   -2.8631   -4.5217 H         1 <0>         0.1092
     26 C18        -6.7224   -4.8318   -5.3393 C.3       1 <0>        -0.1610
     27 C19        -8.9232   -3.7960   -4.8570 C.2       1 <0>        -0.1653
     28 C20        -9.6101   -2.7383   -5.2942 C.2       1 <0>        -0.0017
     29 N4        -10.8873   -3.0785   -5.5760 N.2       1 <0>        -0.1568
     30 N5        -11.1565   -4.2659   -5.3785 N.2       1 <0>        -0.1403
     31 C21        -9.9352   -4.9277   -4.8889 C.3       1 <0>        -0.0354
     32 H4         -9.6164   -5.7106   -5.5769 H         1 <0>         0.1480
     33 C22       -10.1563   -5.4956   -3.4855 C.3       1 <0>        -0.1169
     34 C23        -9.0389   -1.3528   -5.4521 C.3       1 <0>        -0.0975
     35 H5          0.9791    2.5943   -0.9505 H         1 <0>         0.0558
     36 H6         -0.5657    2.4378   -1.8207 H         1 <0>         0.0537
     37 H7         -0.5588    2.7166   -0.0627 H         1 <0>         0.0541
     38 H8          0.4887    0.2205   -1.4732 H         1 <0>         0.0614
     39 H9          0.4956    0.4994    0.2848 H         1 <0>         0.0621
     40 H10        -1.9769    0.6859    0.2650 H         1 <0>         0.0655
     41 H11        -1.9839    0.4070   -1.4930 H         1 <0>         0.0623
     42 H12        -0.9295   -1.8102   -1.1455 H         1 <0>         0.0701
     43 H13        -0.9225   -1.5314    0.6125 H         1 <0>         0.0694
     44 H14        -3.5754   -0.1536    0.9178 H         1 <0>         0.0759
     45 H15        -4.5874   -1.6107    1.0622 H         1 <0>         0.0589
     46 H16        -3.0166   -1.5318    1.8958 H         1 <0>         0.0623
     47 H17        -5.7922   -3.4259    0.9869 H         1 <0>         0.0910
     48 H18        -5.4178   -2.4865   -0.4908 H         1 <0>         0.1002
     49 H19        -3.3325   -6.0132   -0.2870 H         1 <0>         0.0877
     50 H20        -4.4070   -5.7644    1.1241 H         1 <0>         0.0835
     51 H21        -5.8528   -6.3437   -2.8242 H         1 <0>         0.0937
     52 H22        -4.3091   -5.4865   -2.5943 H         1 <0>         0.1250
     53 H23        -3.9441   -7.9017   -3.0647 H         1 <0>         0.1385
     54 H24        -3.3741   -7.4636   -1.4367 H         1 <0>         0.1353
     55 H25        -5.9903   -8.6437   -2.0442 H         1 <0>         0.4268
     56 H26        -6.1221   -8.9757    0.3329 H         1 <0>         0.1408
     57 H27        -4.5981   -8.0674    0.4729 H         1 <0>         0.1338
     58 H28        -6.5367   -6.5851    0.8820 H         1 <0>         0.1228
     59 H29        -7.2064   -7.0110   -0.7120 H         1 <0>         0.0961
     60 H30        -8.1157   -4.8266   -2.6592 H         1 <0>         0.3992
     61 H31        -7.1664   -5.8235   -5.2533 H         1 <0>         0.0581
     62 H32        -6.7860   -4.4935   -6.3735 H         1 <0>         0.0763
     63 H33        -5.6767   -4.8743   -5.0346 H         1 <0>         0.0708
     64 H34       -10.3812   -4.6822   -2.7957 H         1 <0>         0.0679
     65 H35       -10.9904   -6.1970   -3.5046 H         1 <0>         0.0880
     66 H36        -9.2547   -6.0123   -3.1564 H         1 <0>         0.0652
     67 H37        -8.6288   -1.2411   -6.4558 H         1 <0>         0.0866
     68 H38        -9.8263   -0.6153   -5.2971 H         1 <0>         0.0867
     69 H39        -8.2482   -1.1999   -4.7175 H         1 <0>         0.0776
     70 H40        -4.6902   -9.4768   -1.4741 H         1 <0>         0.4348
@<TRIPOS>BOND
     1    1    2 1
     2    1   35 1
     3    1   36 1
     4    1   37 1
     5    2    3 1
     6    2   38 1
     7    2   39 1
     8    3    4 1
     9    3   40 1
    10    3   41 1
    11    4    5 1
    12    4   42 1
    13    4   43 1
    14    5    6 1
    15    5    7 1
    16    5    8 1
    17    7   44 1
    18    7   45 1
    19    7   46 1
    20    8    9 2
    21    8   10 am
    22   10   15 1
    23   10   11 1
    24   11   12 1
    25   11   47 1
    26   11   48 1
    27   12   13 1
    28   12   14 1
    29   12   21 1
    30   14   20 1
    31   14   15 1
    32   14   16 1
    33   15   49 1
    34   15   50 1
    35   16   17 1
    36   16   51 1
    37   16   52 1
    38   17   18 1
    39   17   53 1
    40   17   54 1
    41   18   19 1
    42   18   55 1
    43   18   70 1
    44   19   20 1
    45   19   56 1
    46   19   57 1
    47   20   58 1
    48   20   59 1
    49   21   22 2
    50   21   23 am
    51   23   24 1
    52   23   60 1
    53   24   25 1
    54   24   26 1
    55   24   27 1
    56   26   61 1
    57   26   62 1
    58   26   63 1
    59   27   31 1
    60   27   28 2
    61   28   29 1
    62   28   34 1
    63   29   30 2
    64   30   31 1
    65   31   32 1
    66   31   33 1
    67   33   64 1
    68   33   65 1
    69   33   66 1
    70   34   67 1
    71   34   68 1
    72   34   69 1
@<TRIPOS>MOLECULE
ZINC63272747
   52    55     0     0     0
SMALL
USER_CHARGES

@<TRIPOS>ATOM
      1 C1         -0.1278    1.4919    0.0077 C.3       1 <0>        -0.1507
      2 C2         -0.0169   -0.0110    0.0021 C.2       1 <0>         0.1443
      3 C3          0.0215   -0.7127   -1.1943 C.2       1 <0>        -0.1980
      4 C4          0.1300   -2.1724   -1.1728 C.2       1 <0>         0.5789
      5 O1          0.1642   -2.7883   -2.2224 O.2       1 <0>        -0.5044
      6 N1          0.1928   -2.8412   -0.0083 N.am      1 <0>        -0.5506
      7 C5          0.1579   -2.1966    1.1719 C.2       1 <0>         0.5856
      8 O2          0.2163   -2.8299    2.2094 O.2       1 <0>        -0.5414
      9 C6          0.0557   -0.7320    1.2147 C.2       1 <0>        -0.3509
     10 C7          0.0254   -0.0632    2.4348 C.2       1 <0>         0.3146
     11 N2         -0.0558   -0.7610    3.5828 N.pl3     1 <0>        -0.5767
     12 C8         -0.1591   -0.0886    4.8031 C.ar      1 <0>         0.1274
     13 C9         -0.1840    1.3008    4.8323 C.ar      1 <0>        -0.1616
     14 C10        -0.2862    1.9651    6.0388 C.ar      1 <0>        -0.0648
     15 C11        -0.3645    1.2510    7.2196 C.ar      1 <0>        -0.1482
     16 C12        -0.3406   -0.1364    7.1968 C.ar      1 <0>         0.1437
     17 C13        -0.2430   -0.8073    5.9878 C.ar      1 <0>        -0.1633
     18 O3         -0.4173   -0.8369    8.3588 O.3       1 <0>        -0.4938
     19 C14         0.3009   -4.3021   -0.0249 C.3       1 <0>         0.1065
     20 C15         1.7770   -4.7040   -0.0470 C.3       1 <0>        -0.1085
     21 C16         1.8883   -6.2068   -0.0640 C.2       1 <0>         0.0741
     22 C17         2.0346   -6.9991   -1.1505 C.ar      1 <0>        -0.1683
     23 C18         2.1293   -6.7100   -2.5864 C.ar      1 <0>        -0.0059
     24 C19         2.2744   -7.7372   -3.4541 C.ar      1 <0>        -0.1549
     25 C20         2.3362   -9.0677   -3.0175 C.ar      1 <0>         0.0578
     26 C21         2.2563   -9.4122   -1.7148 C.ar      1 <0>        -0.2133
     27 C22         2.1030   -8.4123   -0.7151 C.ar      1 <0>         0.3277
     28 N3          2.0028   -8.4907    0.5897 N.pl3     1 <0>        -0.5878
     29 C23         1.8654   -7.1339    1.1307 C.3       1 <0>         0.0619
     30 C24        -0.0450   -0.0134   -2.4422 C.1       1 <0>         0.2721
     31 N4         -0.0977    0.5413   -3.4322 N.1       1 <0>        -0.4092
     32 H1          0.8702    1.9299   -0.0073 H         1 <0>         0.1054
     33 H2         -0.6813    1.8187   -0.8725 H         1 <0>         0.0909
     34 H3         -0.6525    1.8141    0.9072 H         1 <0>         0.0863
     35 H4          0.0671    1.0157    2.4604 H         1 <0>         0.1851
     36 H5         -0.0426   -1.7307    3.5629 H         1 <0>         0.4349
     37 H6         -0.1230    1.8611    3.9111 H         1 <0>         0.1357
     38 H7         -0.3046    3.0447    6.0596 H         1 <0>         0.1437
     39 H8         -0.4440    1.7735    8.1615 H         1 <0>         0.1409
     40 H9         -0.2281   -1.8870    5.9679 H         1 <0>         0.1389
     41 H10        -1.3202   -1.0537    8.6285 H         1 <0>         0.4006
     42 H11        -0.1739   -4.7117    0.8667 H         1 <0>         0.1079
     43 H12        -0.1954   -4.6931   -0.9130 H         1 <0>         0.1098
     44 H13         2.2518   -4.2944   -0.9385 H         1 <0>         0.1160
     45 H14         2.2734   -4.3130    0.8412 H         1 <0>         0.1167
     46 H15         2.0833   -5.6923   -2.9447 H         1 <0>         0.1635
     47 H16         2.3443   -7.5268   -4.5111 H         1 <0>         0.1581
     48 H17         2.4521   -9.8494   -3.7537 H         1 <0>         0.1606
     49 H18         2.3089  -10.4527   -1.4302 H         1 <0>         0.1600
     50 H19         2.6969   -6.9072    1.7980 H         1 <0>         0.1740
     51 H20         0.9190   -7.0379    1.6627 H         1 <0>         0.1735
     52 H21         2.0206   -9.3088    1.1107 H         1 <0>         0.4553
@<TRIPOS>BOND
     1    1    2 1
     2    1   32 1
     3    1   33 1
     4    1   34 1
     5    2    9 1
     6    2    3 2
     7    3    4 1
     8    3   30 1
     9    4    5 2
    10    4    6 am
    11    6    7 am
    12    6   19 1
    13    7    8 2
    14    7    9 1
    15    9   10 2
    16   10   11 1
    17   10   35 1
    18   11   12 1
    19   11   36 1
    20   12   17 ar
    21   12   13 ar
    22   13   14 ar
    23   13   37 1
    24   14   15 ar
    25   14   38 1
    26   15   16 ar
    27   15   39 1
    28   16   17 ar
    29   16   18 1
    30   17   40 1
    31   18   41 1
    32   19   20 1
    33   19   42 1
    34   19   43 1
    35   20   21 1
    36   20   44 1
    37   20   45 1
    38   21   29 1
    39   21   22 2
    40   22   27 ar
    41   22   23 ar
    42   23   24 ar
    43   23   46 1
    44   24   25 ar
    45   24   47 1
    46   25   26 ar
    47   25   48 1
    48   26   27 ar
    49   26   49 1
    50   27   28 2
    51   28   29 1
    52   28   52 1
    53   29   50 1
    54   29   51 1
    55   30   31 3
@<TRIPOS>MOLECULE
ZINC53630150
   58    61     0     0     0
SMALL
USER_CHARGES

@<TRIPOS>ATOM
      1 C1         -0.0187    1.5258    0.0104 C.3       1 <0>        -0.1528
      2 C2          0.0021   -0.0041    0.0020 C.3       1 <0>        -0.0392
      3 H1         -1.0210   -0.3802    0.0098 H         1 <0>         0.1088
      4 C3          0.7048   -0.4889   -1.2414 C.ar      1 <0>        -0.1607
      5 C4         -0.0013   -0.5091   -2.4173 C.ar      1 <0>        -0.0269
      6 C5          0.6067   -0.9422   -3.5922 C.ar      1 <0>        -0.1305
      7 C6          1.9486   -1.3601   -3.5783 C.ar      1 <0>         0.0863
      8 C7          2.6501   -1.3369   -2.3826 C.ar      1 <0>        -0.1224
      9 C8          2.0294   -0.9056   -1.2184 C.ar      1 <0>         0.1464
     10 O1          2.7552   -0.9183   -0.0657 O.3       1 <0>        -0.2966
     11 C9          2.2222   -0.3117    1.0131 C.2       1 <0>         0.4958
     12 O2          2.8959    0.3588    1.7592 O.2       1 <0>        -0.4088
     13 C10         0.7396   -0.5098    1.2454 C.3       1 <0>        -0.1150
     14 H2          0.4245    0.0599    2.1196 H         1 <0>         0.1298
     15 C11         0.4414   -1.9954    1.4575 C.3       1 <0>        -0.1355
     16 C12         1.0698   -2.4547    2.7479 C.2       1 <0>         0.5105
     17 O3          1.6946   -1.6709    3.4308 O.2       1 <0>        -0.5151
     18 N1          0.9374   -3.7364    3.1432 N.am      1 <0>        -0.7360
     19 C13         1.5483   -4.1828    4.3977 C.3       1 <0>         0.1208
     20 C14         1.2501   -5.6684    4.6097 C.3       1 <0>        -0.0752
     21 C15         1.8785   -6.1277    5.9002 C.2       1 <0>         0.0619
     22 N2          1.2684   -6.2038    7.1231 N.pl3     1 <0>        -0.5097
     23 C16         2.1870   -6.6629    8.0000 C.cat     1 <0>         0.3101
     24 N3          3.3089   -6.8633    7.3641 N.pl3     1 <0>        -0.4728
     25 C17         3.1466   -6.5477    6.0706 C.2       1 <0>         0.0111
     26 O4          2.2698   -1.7174   -4.8381 O.3       1 <0>        -0.1868
     27 C18         1.2200   -1.5595   -5.6637 C.2       1 <0>         0.0102
     28 C19         0.1648   -1.0905   -4.9845 C.2       1 <0>        -0.1543
     29 C20        -1.2015   -0.7780   -5.5383 C.3       1 <0>         0.0024
     30 C21        -1.2249   -1.0790   -7.0382 C.3       1 <0>        -0.1503
     31 C22        -2.2485   -1.6390   -4.8289 C.3       1 <0>        -0.1390
     32 C23        -1.5181    0.7014   -5.3100 C.3       1 <0>        -0.1407
     33 H3          1.0039    1.9031    0.0027 H         1 <0>         0.0572
     34 H4         -0.5459    1.8868   -0.8726 H         1 <0>         0.0724
     35 H5         -0.5289    1.8773    0.9072 H         1 <0>         0.0720
     36 H6         -1.0325   -0.1883   -2.4315 H         1 <0>         0.1375
     37 H7          3.6819   -1.6549   -2.3570 H         1 <0>         0.1468
     38 H8         -0.6371   -2.1464    1.5046 H         1 <0>         0.1194
     39 H9          0.8529   -2.5706    0.6281 H         1 <0>         0.1071
     40 H10         0.4377   -4.3632    2.5970 H         1 <0>         0.4067
     41 H11         2.6268   -4.0318    4.3505 H         1 <0>         0.0794
     42 H12         1.1368   -3.6077    5.2271 H         1 <0>         0.0733
     43 H13         0.1717   -5.8194    4.6568 H         1 <0>         0.1057
     44 H14         1.6617   -6.2436    3.7803 H         1 <0>         0.1217
     45 H15         2.0209   -6.8352    9.0531 H         1 <0>         0.2680
     46 H16         3.9015   -6.6159    5.3012 H         1 <0>         0.2260
     47 H17         0.3480   -5.9714    7.3226 H         1 <0>         0.4659
     48 H18         1.2268   -1.7784   -6.7213 H         1 <0>         0.2104
     49 H19        -0.9994   -2.1329   -7.2009 H         1 <0>         0.0596
     50 H20        -2.2131   -0.8529   -7.4388 H         1 <0>         0.0662
     51 H21        -0.4790   -0.4656   -7.5436 H         1 <0>         0.0602
     52 H22        -2.2318   -1.4245   -3.7604 H         1 <0>         0.0550
     53 H23        -3.2368   -1.4129   -5.2295 H         1 <0>         0.0622
     54 H24        -2.0230   -2.6929   -4.9916 H         1 <0>         0.0569
     55 H25        -0.7722    1.3148   -5.8154 H         1 <0>         0.0580
     56 H26        -2.5063    0.9275   -5.7106 H         1 <0>         0.0625
     57 H27        -1.5014    0.9159   -4.2415 H         1 <0>         0.0554
     58 H28         4.1296   -7.1920    7.7633 H         1 <0>         0.4688
@<TRIPOS>BOND
     1    1    2 1
     2    1   33 1
     3    1   34 1
     4    1   35 1
     5    2    3 1
     6    2   13 1
     7    2    4 1
     8    4    9 ar
     9    4    5 ar
    10    5    6 ar
    11    5   36 1
    12    6   28 1
    13    6    7 ar
    14    7    8 ar
    15    7   26 1
    16    8    9 ar
    17    8   37 1
    18    9   10 1
    19   10   11 1
    20   11   12 2
    21   11   13 1
    22   13   14 1
    23   13   15 1
    24   15   16 1
    25   15   38 1
    26   15   39 1
    27   16   17 2
    28   16   18 am
    29   18   19 1
    30   18   40 1
    31   19   20 1
    32   19   41 1
    33   19   42 1
    34   20   43 1
    35   20   44 1
    36   20   21 1
    37   21   22 1
    38   21   25 2
    39   22   23 1
    40   22   47 1
    41   23   45 1
    42   23   24 2
    43   24   25 1
    44   24   58 1
    45   25   46 1
    46   26   27 1
    47   27   28 2
    48   27   48 1
    49   28   29 1
    50   29   30 1
    51   29   31 1
    52   29   32 1
    53   30   49 1
    54   30   50 1
    55   30   51 1
    56   31   52 1
    57   31   53 1
    58   31   54 1
    59   32   55 1
    60   32   56 1
    61   32   57 1
@<TRIPOS>MOLECULE
ZINC05584841
   58    61     0     0     0
SMALL
USER_CHARGES
4-butyl-1,2-diphenyl-4-(p-tolylamino)pyrazolidine-3,5-dione
@<TRIPOS>ATOM
      1 C1          5.9073    3.4752    0.1704 C.3       1 <0>        -0.1532
      2 C2          4.8558    2.4609    0.6248 C.3       1 <0>        -0.1225
      3 C3          3.5266    2.7571   -0.0726 C.3       1 <0>        -0.1262
      4 C4          2.4751    1.7428    0.3817 C.3       1 <0>        -0.1075
      5 C5          1.1459    2.0391   -0.3157 C.3       1 <0>         0.1328
      6 C6          0.0862    1.0473    0.1177 C.2       1 <0>         0.5301
      7 O1          0.1089   -0.1554   -0.0373 O.2       1 <0>        -0.4550
      8 N1         -0.8888    1.7674    0.7039 N.am      1 <0>        -0.3686
      9 N2         -0.5887    3.1267    0.7147 N.am      1 <0>        -0.3715
     10 C7          0.5968    3.3791    0.1284 C.2       1 <0>         0.5312
     11 O2          1.1205    4.4635   -0.0160 O.2       1 <0>        -0.4513
     12 C8         -1.4189    4.1103    1.2635 C.ar      1 <0>         0.1282
     13 C9         -2.7619    4.1617    0.9139 C.ar      1 <0>        -0.1090
     14 C10        -3.5799    5.1305    1.4614 C.ar      1 <0>        -0.1015
     15 C11        -3.0604    6.0555    2.3484 C.ar      1 <0>        -0.1094
     16 C12        -1.7223    6.0106    2.6942 C.ar      1 <0>        -0.1015
     17 C13        -0.9003    5.0407    2.1546 C.ar      1 <0>        -0.1034
     18 C14        -2.0587    1.2169    1.2388 C.ar      1 <0>         0.1300
     19 C15        -2.4952    1.6011    2.4999 C.ar      1 <0>        -0.1132
     20 C16        -3.6532    1.0597    3.0229 C.ar      1 <0>        -0.1018
     21 C17        -4.3719    0.1279    2.2967 C.ar      1 <0>        -0.1115
     22 C18        -3.9368   -0.2610    1.0430 C.ar      1 <0>        -0.1005
     23 C19        -2.7827    0.2808    0.5121 C.ar      1 <0>        -0.1020
     24 N3          1.3130    2.0091   -1.7708 N.pl3     1 <0>        -0.7084
     25 C20         0.2079    2.1947   -2.6047 C.ar      1 <0>         0.1934
     26 C21        -1.0148    2.5743   -2.0658 C.ar      1 <0>        -0.2202
     27 C22        -2.1042    2.7615   -2.8937 C.ar      1 <0>        -0.0695
     28 C23        -1.9815    2.5613   -4.2564 C.ar      1 <0>        -0.1322
     29 C24        -0.7670    2.1782   -4.7956 C.ar      1 <0>        -0.0739
     30 C25         0.3277    1.9944   -3.9740 C.ar      1 <0>        -0.1717
     31 C26        -3.1738    2.7614   -5.1561 C.3       1 <0>        -0.1084
     32 H1          6.8542    3.2641    0.6673 H         1 <0>         0.0558
     33 H2          6.0393    3.4027   -0.9091 H         1 <0>         0.0549
     34 H3          5.5774    4.4813    0.4294 H         1 <0>         0.0555
     35 H4          4.7237    2.5333    1.7043 H         1 <0>         0.0629
     36 H5          5.1857    1.4548    0.3658 H         1 <0>         0.0640
     37 H6          3.6586    2.6847   -1.1522 H         1 <0>         0.0678
     38 H7          3.1967    3.7632    0.1864 H         1 <0>         0.0841
     39 H8          2.3430    1.8153    1.4613 H         1 <0>         0.0879
     40 H9          2.8050    0.7367    0.1228 H         1 <0>         0.0984
     41 H10        -3.1672    3.4420    0.2180 H         1 <0>         0.1257
     42 H11        -4.6254    5.1683    1.1933 H         1 <0>         0.1325
     43 H12        -3.7013    6.8145    2.7723 H         1 <0>         0.1311
     44 H13        -1.3196    6.7344    3.3872 H         1 <0>         0.1343
     45 H14         0.1446    5.0057    2.4256 H         1 <0>         0.1295
     46 H15        -1.9321    2.3258    3.0693 H         1 <0>         0.1262
     47 H16        -3.9955    1.3615    4.0017 H         1 <0>         0.1319
     48 H17        -5.2750   -0.2968    2.7094 H         1 <0>         0.1306
     49 H18        -4.5004   -0.9890    0.4784 H         1 <0>         0.1339
     50 H19        -2.4439   -0.0228   -0.4674 H         1 <0>         0.1304
     51 H20         2.1911    1.8605   -2.1552 H         1 <0>         0.4151
     52 H21        -1.1124    2.7266   -1.0010 H         1 <0>         0.1370
     53 H22        -3.0541    3.0607   -2.4758 H         1 <0>         0.1174
     54 H23        -0.6745    2.0230   -5.8604 H         1 <0>         0.1248
     55 H24         1.2760    1.6955   -4.3958 H         1 <0>         0.1245
     56 H25        -3.7187    1.8223   -5.2514 H         1 <0>         0.0661
     57 H26        -3.8290    3.5198   -4.7276 H         1 <0>         0.0624
     58 H27        -2.8360    3.0870   -6.1400 H         1 <0>         0.0640
@<TRIPOS>BOND
     1    1    2 1
     2    1   32 1
     3    1   33 1
     4    1   34 1
     5    2    3 1
     6    2   35 1
     7    2   36 1
     8    3    4 1
     9    3   37 1
    10    3   38 1
    11    4    5 1
    12    4   39 1
    13    4   40 1
    14    5   10 1
    15    5    6 1
    16    5   24 1
    17    6    7 2
    18    6    8 am
    19    8    9 1
    20    8   18 1
    21    9   10 am
    22    9   12 1
    23   10   11 2
    24   12   17 ar
    25   12   13 ar
    26   13   14 ar
    27   13   41 1
    28   14   15 ar
    29   14   42 1
    30   15   16 ar
    31   15   43 1
    32   16   17 ar
    33   16   44 1
    34   17   45 1
    35   18   23 ar
    36   18   19 ar
    37   19   20 ar
    38   19   46 1
    39   20   21 ar
    40   20   47 1
    41   21   22 ar
    42   21   48 1
    43   22   23 ar
    44   22   49 1
    45   23   50 1
    46   24   25 1
    47   24   51 1
    48   25   30 ar
    49   25   26 ar
    50   26   27 ar
    51   26   52 1
    52   27   28 ar
    53   27   53 1
    54   28   29 ar
    55   28   31 1
    56   29   30 ar
    57   29   54 1
    58   30   55 1
    59   31   56 1
    60   31   57 1
    61   31   58 1
@<TRIPOS>MOLECULE
ZINC09323112
   50    53     0     0     0
SMALL
USER_CHARGES
4-cyano-2-fluoro-N-[[4-(2-naphthylmethoxy)phenyl]methyleneamino]benzamide
@<TRIPOS>ATOM
      1 C1         -0.0126    1.0758    0.0080 C.ar      1 <0>        -0.1111
      2 C2         -1.2348    1.7457    0.0174 C.ar      1 <0>        -0.1168
      3 C3         -1.2884    3.1055    0.0306 C.ar      1 <0>        -0.1026
      4 C4         -0.0955    3.8485    0.0228 C.ar      1 <0>        -0.0566
      5 C5         -0.1110    5.2538    0.0292 C.ar      1 <0>        -0.0747
      6 C6          1.0641    5.9402    0.0216 C.ar      1 <0>        -0.0941
      7 C7          2.2863    5.2704    0.0066 C.ar      1 <0>        -0.0963
      8 C8          2.3400    3.9105   -0.0003 C.ar      1 <0>        -0.1062
      9 C9          1.1472    3.1674    0.0076 C.ar      1 <0>        -0.0444
     10 C10         1.1626    1.7621    0.0004 C.ar      1 <0>        -0.1090
     11 C11         1.0436    7.4470    0.0290 C.3       1 <0>         0.0993
     12 O1          1.0241    7.9298   -1.3159 O.3       1 <0>        -0.3056
     13 C12         1.0041    9.2772   -1.4873 C.ar      1 <0>         0.1512
     14 C13         0.9974   10.1159   -0.3801 C.ar      1 <0>        -0.2161
     15 C14         0.9829   11.4835   -0.5492 C.ar      1 <0>        -0.0326
     16 C15         0.9631   12.0260   -1.8369 C.ar      1 <0>        -0.1020
     17 C16         0.9641   11.1781   -2.9478 C.ar      1 <0>        -0.0453
     18 C17         0.9845    9.8119   -2.7691 C.ar      1 <0>        -0.1567
     19 C18         0.9419   13.4881   -2.0229 C.2       1 <0>         0.1252
     20 N1          0.9410   14.2739   -0.9895 N.2       1 <0>        -0.2344
     21 N2          0.9208   15.6636   -1.1663 N.am      1 <0>        -0.5786
     22 C19         0.9199   16.4794   -0.0935 C.2       1 <0>         0.5744
     23 O2          0.9366   16.0093    1.0279 O.2       1 <0>        -0.4781
     24 C20         0.8986   17.9444   -0.2798 C.ar      1 <0>        -0.1451
     25 C21         0.8793   18.4850   -1.5682 C.ar      1 <0>        -0.0576
     26 C22         0.8585   19.8499   -1.7422 C.ar      1 <0>        -0.0878
     27 C23         0.8571   20.6976   -0.6309 C.ar      1 <0>         0.0379
     28 C24         0.8767   20.1609    0.6571 C.ar      1 <0>        -0.1147
     29 C25         0.8918   18.7915    0.8335 C.ar      1 <0>         0.1696
     30 F1          0.9047   18.2703    2.0798 F         1 <0>        -0.1027
     31 C26         0.8349   22.1177   -0.8142 C.1       1 <0>         0.2431
     32 N3          0.8174   23.2442   -0.9595 N.1       1 <0>        -0.3848
     33 H1          0.0021   -0.0041    0.0020 H         1 <0>         0.1249
     34 H2         -2.1530    1.1771    0.0187 H         1 <0>         0.1249
     35 H3         -2.2427    3.6110    0.0417 H         1 <0>         0.1284
     36 H4         -1.0506    5.7862    0.0407 H         1 <0>         0.1300
     37 H5          3.2044    5.8390    0.0008 H         1 <0>         0.1259
     38 H6          3.2944    3.4051   -0.0123 H         1 <0>         0.1309
     39 H7          2.1021    1.2296   -0.0114 H         1 <0>         0.1287
     40 H8          0.1537    7.7957    0.5530 H         1 <0>         0.0750
     41 H9          1.9334    7.8201    0.5360 H         1 <0>         0.0758
     42 H10         1.0083    9.6957    0.6147 H         1 <0>         0.1329
     43 H11         0.9818   12.1349    0.3122 H         1 <0>         0.1389
     44 H12         0.9486   11.5930   -3.9448 H         1 <0>         0.1368
     45 H13         0.9856    9.1559   -3.6270 H         1 <0>         0.1369
     46 H14         0.9270   13.9056   -3.0188 H         1 <0>         0.1223
     47 H15         0.9074   16.0386   -2.0608 H         1 <0>         0.3853
     48 H16         0.8804   17.8313   -2.4279 H         1 <0>         0.1464
     49 H17         0.8430   20.2666   -2.7385 H         1 <0>         0.1512
     50 H18         0.8756   20.8162    1.5156 H         1 <0>         0.1582
@<TRIPOS>BOND
     1    1   10 ar
     2    1    2 ar
     3    1   33 1
     4    2    3 ar
     5    2   34 1
     6    3    4 ar
     7    3   35 1
     8    4    9 ar
     9    4    5 ar
    10    5    6 ar
    11    5   36 1
    12    6    7 ar
    13    6   11 1
    14    7    8 ar
    15    7   37 1
    16    8    9 ar
    17    8   38 1
    18    9   10 ar
    19   10   39 1
    20   11   12 1
    21   11   40 1
    22   11   41 1
    23   12   13 1
    24   13   18 ar
    25   13   14 ar
    26   14   15 ar
    27   14   42 1
    28   15   16 ar
    29   15   43 1
    30   16   17 ar
    31   16   19 1
    32   17   18 ar
    33   17   44 1
    34   18   45 1
    35   19   20 2
    36   19   46 1
    37   20   21 1
    38   21   22 am
    39   21   47 1
    40   22   23 2
    41   22   24 1
    42   24   29 ar
    43   24   25 ar
    44   25   26 ar
    45   25   48 1
    46   26   27 ar
    47   26   49 1
    48   27   28 ar
    49   27   31 1
    50   28   29 ar
    51   28   50 1
    52   29   30 1
    53   31   32 3
@<TRIPOS>MOLECULE
ZINC20764387
   53    55     0     0     0
SMALL
USER_CHARGES
N-[[1-(5-chloro-2-methyl-phenyl)-2,5-dimethyl-pyrrol-3-yl]methyleneamino]-4-ethoxy-benzamide
@<TRIPOS>ATOM
      1 C1          0.2374  -11.0496    8.7421 C.3       1 <0>        -0.1563
      2 C2          0.2125   -9.9418    7.6871 C.3       1 <0>         0.0498
      3 O1          0.2023   -8.6678    8.3342 O.3       1 <0>        -0.3103
      4 C3          0.1801   -7.5710    7.5352 C.ar      1 <0>         0.1610
      5 C4          0.1692   -6.3014    8.1009 C.ar      1 <0>        -0.1591
      6 C5          0.1462   -5.1860    7.2938 C.ar      1 <0>        -0.0149
      7 C6          0.1342   -5.3318    5.9039 C.ar      1 <0>        -0.1725
      8 C7          0.1403   -6.6101    5.3392 C.ar      1 <0>        -0.0435
      9 C8          0.1687   -7.7203    6.1533 C.ar      1 <0>        -0.2176
     10 C9          0.1090   -4.1393    5.0351 C.2       1 <0>         0.5826
     11 O2          0.0986   -3.0275    5.5285 O.2       1 <0>        -0.5094
     12 N1          0.0975   -4.2820    3.6950 N.am      1 <0>        -0.5921
     13 N2          0.0736   -3.1498    2.8702 N.2       1 <0>        -0.2440
     14 C10         0.0625   -3.2872    1.5793 C.2       1 <0>         0.1530
     15 C11         0.0373   -2.0959    0.7114 C.2       1 <0>        -0.1489
     16 C12         0.0231   -2.0760   -0.7543 C.2       1 <0>        -0.1637
     17 C13        -0.0039   -0.7814   -1.1209 C.2       1 <0>         0.0290
     18 N3          0.0021   -0.0041    0.0020 N.pl3     1 <0>        -0.4038
     19 C14         0.0233   -0.7905    1.1123 C.2       1 <0>         0.0986
     20 C15         0.0294   -0.3045    2.5388 C.3       1 <0>        -0.0825
     21 C16        -0.0169    1.3972    0.0097 C.ar      1 <0>         0.1181
     22 C17         1.1751    2.1090    0.0022 C.ar      1 <0>        -0.0904
     23 C18         1.1530    3.4909    0.0093 C.ar      1 <0>        -0.0347
     24 C19        -0.0561    4.1645    0.0245 C.ar      1 <0>        -0.0912
     25 C20        -1.2440    3.4576    0.0320 C.ar      1 <0>        -0.1006
     26 C21        -1.2278    2.0762    0.0191 C.ar      1 <0>        -0.0607
     27 C22        -2.5236    1.3069    0.0211 C.3       1 <0>        -0.1199
     28 Cl1         2.6426    4.3824   -0.0001 Cl        1 <0>        -0.0559
     29 C23        -0.0318   -0.2724   -2.5390 C.3       1 <0>        -0.0899
     30 H1          0.2452  -12.0303    8.2439 H         1 <0>         0.0817
     31 H2         -0.6556  -10.9692    9.3793 H         1 <0>         0.0686
     32 H3          1.1405  -10.9458    9.3615 H         1 <0>         0.0686
     33 H4          1.1055  -10.0222    7.0499 H         1 <0>         0.0662
     34 H5         -0.6905  -10.0456    7.0676 H         1 <0>         0.0662
     35 H6          0.1785   -6.1896    9.1751 H         1 <0>         0.1409
     36 H7          0.1377   -4.1999    7.7341 H         1 <0>         0.1457
     37 H8          0.1270   -6.7270    4.2656 H         1 <0>         0.1274
     38 H9          0.1779   -8.7085    5.7176 H         1 <0>         0.1358
     39 H10         0.1069   -5.2874    3.2488 H         1 <0>         0.3956
     40 H11         0.0719   -4.2926    1.1331 H         1 <0>         0.1192
     41 H12         0.0286   -2.9329   -1.4115 H         1 <0>         0.1479
     42 H13         0.0147    0.7953    2.5515 H         1 <0>         0.0565
     43 H14         0.9370   -0.6650    3.0451 H         1 <0>         0.0872
     44 H15        -0.8591   -0.6891    3.0610 H         1 <0>         0.0870
     45 H16         2.1186    1.5834   -0.0089 H         1 <0>         0.1403
     46 H17        -0.0715    5.2444    0.0307 H         1 <0>         0.1422
     47 H18        -2.1860    3.9858    0.0435 H         1 <0>         0.1432
     48 H19        -3.3683    2.0115    0.0289 H         1 <0>         0.0745
     49 H20        -2.5699    0.6690    0.9161 H         1 <0>         0.0767
     50 H21        -2.5784    0.6787   -0.8802 H         1 <0>         0.0765
     51 H22        -0.0504    0.8274   -2.5335 H         1 <0>         0.0628
     52 H23        -0.9306   -0.6518   -3.0471 H         1 <0>         0.0794
     53 H24         0.8653   -0.6213   -3.0715 H         1 <0>         0.0795
@<TRIPOS>BOND
     1    1    2 1
     2    1   30 1
     3    1   31 1
     4    1   32 1
     5    2    3 1
     6    2   33 1
     7    2   34 1
     8    3    4 1
     9    4    9 ar
    10    4    5 ar
    11    5    6 ar
    12    5   35 1
    13    6    7 ar
    14    6   36 1
    15    7    8 ar
    16    7   10 1
    17    8    9 ar
    18    8   37 1
    19    9   38 1
    20   10   11 2
    21   10   12 am
    22   12   13 1
    23   12   39 1
    24   13   14 2
    25   14   15 1
    26   14   40 1
    27   15   19 2
    28   15   16 1
    29   16   17 2
    30   16   41 1
    31   17   18 1
    32   17   29 1
    33   18   19 1
    34   18   21 1
    35   19   20 1
    36   20   42 1
    37   20   43 1
    38   20   44 1
    39   21   26 ar
    40   21   22 ar
    41   22   23 ar
    42   22   45 1
    43   23   24 ar
    44   23   28 1
    45   24   25 ar
    46   24   46 1
    47   25   26 ar
    48   25   47 1
    49   26   27 1
    50   27   48 1
    51   27   49 1
    52   27   50 1
    53   29   51 1
    54   29   52 1
    55   29   53 1
@<TRIPOS>MOLECULE
ZINC39892458
   52    55     0     0     0
SMALL
USER_CHARGES

@<TRIPOS>ATOM
      1 C1         -0.0187    1.5258    0.0104 C.3       1 <0>        -0.1518
      2 C2          0.0021   -0.0041    0.0020 C.3       1 <0>         0.0557
      3 O1         -1.3386   -0.4987    0.0122 O.3       1 <0>        -0.3450
      4 C3         -1.4971   -1.8382    0.0065 C.2       1 <0>         0.5314
      5 O2         -0.5225   -2.5660   -0.0067 O.2       1 <0>        -0.4921
      6 C4         -2.8422   -2.4161    0.0162 C.2       1 <0>        -0.2112
      7 C5         -3.5478   -2.7137   -1.2187 C.2       1 <0>        -0.0571
      8 C6         -4.7769   -3.2426   -1.0391 C.2       1 <0>        -0.2194
      9 S1         -4.9741   -3.3363    0.7162 S.3       1 <0>         0.3043
     10 C7         -3.4953   -2.7085    1.2051 C.2       1 <0>         0.0434
     11 N1         -3.0347   -2.5230    2.4973 N.am      1 <0>        -0.6123
     12 C8         -3.8099   -2.8665    3.5449 C.2       1 <0>         0.6062
     13 O3         -4.9152   -3.3400    3.3548 O.2       1 <0>        -0.4765
     14 C9         -3.3228   -2.6703    4.9114 C.2       1 <0>        -0.0870
     15 C10        -4.0066   -2.9817    6.0670 C.2       1 <0>        -0.0904
     16 C11        -3.1744   -2.6326    7.1348 C.2       1 <0>        -0.1929
     17 C12        -2.0245   -2.1261    6.5991 C.2       1 <0>         0.0729
     18 O4         -2.1231   -2.1584    5.2595 O.3       1 <0>        -0.1518
     19 C13        -0.8637   -1.6306    7.3649 C.ar      1 <0>        -0.0725
     20 C14        -1.0477   -0.7184    8.4065 C.ar      1 <0>        -0.0574
     21 C15         0.0409   -0.2595    9.1178 C.ar      1 <0>        -0.1283
     22 C16         1.3148   -0.7000    8.8026 C.ar      1 <0>        -0.0713
     23 C17         1.5069   -1.6029    7.7731 C.ar      1 <0>        -0.1536
     24 C18         0.4250   -2.0765    7.0548 C.ar      1 <0>         0.1260
     25 F1          0.6126   -2.9629    6.0527 F         1 <0>        -0.1278
     26 C19        -5.7448   -3.6519   -2.1061 C.3       1 <0>        -0.0297
     27 C20        -5.2872   -3.0334   -3.4353 C.3       1 <0>        -0.0870
     28 H1         -5.4677   -1.9586   -3.4192 H         1 <0>         0.0771
     29 C21        -3.7900   -3.2994   -3.6162 C.3       1 <0>        -0.1135
     30 C22        -2.9885   -2.4675   -2.6122 C.3       1 <0>        -0.0624
     31 C23        -6.0659   -3.6666   -4.5901 C.3       1 <0>        -0.1476
     32 H2          1.0039    1.9031    0.0027 H         1 <0>         0.0812
     33 H3         -0.5459    1.8868   -0.8726 H         1 <0>         0.0681
     34 H4         -0.5289    1.8773    0.9072 H         1 <0>         0.0662
     35 H5          0.5123   -0.3556   -0.8948 H         1 <0>         0.0697
     36 H6          0.5293   -0.3651    0.8851 H         1 <0>         0.0671
     37 H7         -2.1540   -2.1458    2.6487 H         1 <0>         0.4232
     38 H8         -4.9949   -3.4119    6.1346 H         1 <0>         0.1721
     39 H9         -3.3987   -2.7422    8.1856 H         1 <0>         0.1674
     40 H10        -2.0405   -0.3730    8.6541 H         1 <0>         0.1423
     41 H11        -0.1008    0.4461    9.9230 H         1 <0>         0.1407
     42 H12         2.1631   -0.3363    9.3635 H         1 <0>         0.1408
     43 H13         2.5037   -1.9423    7.5328 H         1 <0>         0.1441
     44 H14        -5.7590   -4.7384   -2.1921 H         1 <0>         0.0849
     45 H15        -6.7419   -3.2895   -1.8563 H         1 <0>         0.0833
     46 H16        -3.5879   -4.3579   -3.4528 H         1 <0>         0.0683
     47 H17        -3.4938   -3.0278   -4.6295 H         1 <0>         0.0722
     48 H18        -3.0768   -1.4098   -2.8601 H         1 <0>         0.0813
     49 H19        -1.9408   -2.7667   -2.6439 H         1 <0>         0.0744
     50 H20        -7.1317   -3.4837   -4.4531 H         1 <0>         0.0583
     51 H21        -5.7399   -3.2265   -5.5326 H         1 <0>         0.0585
     52 H22        -5.8809   -4.7406   -4.6074 H         1 <0>         0.0573
@<TRIPOS>BOND
     1    1    2 1
     2    1   32 1
     3    1   33 1
     4    1   34 1
     5    2    3 1
     6    2   35 1
     7    2   36 1
     8    3    4 1
     9    4    5 2
    10    4    6 1
    11    6   10 2
    12    6    7 1
    13    7   30 1
    14    7    8 2
    15    8    9 1
    16    8   26 1
    17    9   10 1
    18   10   11 1
    19   11   12 am
    20   11   37 1
    21   12   13 2
    22   12   14 1
    23   14   18 1
    24   14   15 2
    25   15   16 1
    26   15   38 1
    27   16   17 2
    28   16   39 1
    29   17   18 1
    30   17   19 1
    31   19   24 ar
    32   19   20 ar
    33   20   21 ar
    34   20   40 1
    35   21   22 ar
    36   21   41 1
    37   22   23 ar
    38   22   42 1
    39   23   24 ar
    40   23   43 1
    41   24   25 1
    42   26   27 1
    43   26   44 1
    44   26   45 1
    45   27   28 1
    46   27   29 1
    47   27   31 1
    48   29   30 1
    49   29   46 1
    50   29   47 1
    51   30   48 1
    52   30   49 1
    53   31   50 1
    54   31   51 1
    55   31   52 1
@<TRIPOS>MOLECULE
ZINC58966288
   47    49     0     0     0
SMALL
USER_CHARGES

@<TRIPOS>ATOM
      1 C1         -0.4220    0.0577    0.7022 C.3       1 <0>        -0.1498
      2 C2          0.1909   -1.2649    0.2376 C.3       1 <0>        -0.0880
      3 C3          0.7996   -1.0838   -1.1291 C.ar      1 <0>        -0.1033
      4 C4          0.0695   -1.3994   -2.2585 C.ar      1 <0>        -0.1012
      5 C5          0.6272   -1.2335   -3.5127 C.ar      1 <0>        -0.1268
      6 C6          1.9170   -0.7510   -3.6409 C.ar      1 <0>        -0.1064
      7 C7          2.6519   -0.4333   -2.5158 C.ar      1 <0>        -0.1161
      8 C8          2.0928   -0.5942   -1.2546 C.ar      1 <0>         0.1410
      9 N1          2.8329   -0.2682   -0.1127 N.am      1 <0>        -0.6615
     10 C9          4.1647   -0.4742   -0.0913 C.2       1 <0>         0.5387
     11 O1          4.7339   -0.8654   -1.0884 O.2       1 <0>        -0.4987
     12 C10         4.9465   -0.2187    1.1714 C.3       1 <0>        -0.1231
     13 H1          4.3728   -0.5662    2.0306 H         1 <0>         0.1282
     14 C11         5.2149    1.2812    1.3103 C.3       1 <0>        -0.1449
     15 S1          6.5242   -1.1109    1.0968 S.3       1 <0>         0.1157
     16 C12         7.2443   -0.8365    2.6813 C.ar      1 <0>         0.3059
     17 N2          8.4290   -1.3627    2.9511 N.ar      1 <0>        -0.4691
     18 C13         9.0001   -1.1730    4.1411 C.ar      1 <0>         0.2934
     19 C14         8.3262   -0.4075    5.1020 C.ar      1 <0>        -0.1793
     20 C15         7.0922    0.1213    4.7749 C.ar      1 <0>         0.1132
     21 N3          6.5884   -0.1041    3.5708 N.ar      1 <0>        -0.4983
     22 C16         6.3299    0.9507    5.7759 C.3       1 <0>         0.5273
     23 F1          6.6816    2.2969    5.6304 F         1 <0>        -0.1620
     24 F2          4.9564    0.8011    5.5559 F         1 <0>        -0.1581
     25 F3          6.6440    0.5239    7.0707 F         1 <0>        -0.1621
     26 C17        10.3199   -1.7599    4.4413 C.2       1 <0>        -0.0161
     27 C18        11.0707   -2.5139    3.5927 C.2       1 <0>        -0.1136
     28 C19        12.2445   -2.8594    4.2882 C.2       1 <0>        -0.2228
     29 C20        12.1550   -2.3057    5.5147 C.2       1 <0>         0.0040
     30 O2         10.9945   -1.6380    5.6015 O.3       1 <0>        -0.1645
     31 H2          0.3543    0.8215    0.7485 H         1 <0>         0.0510
     32 H3         -1.1947    0.3672   -0.0015 H         1 <0>         0.0608
     33 H4         -0.8623   -0.0733    1.6907 H         1 <0>         0.0624
     34 H5          0.9636   -1.5744    0.9414 H         1 <0>         0.0693
     35 H6         -0.5854   -2.0287    0.1913 H         1 <0>         0.0785
     36 H7         -0.9379   -1.7764   -2.1616 H         1 <0>         0.1265
     37 H8          0.0546   -1.4816   -4.3941 H         1 <0>         0.1245
     38 H9          2.3499   -0.6229   -4.6220 H         1 <0>         0.1266
     39 H10         3.6591   -0.0568   -2.6166 H         1 <0>         0.1399
     40 H11         2.3876    0.1061    0.6634 H         1 <0>         0.4128
     41 H12         5.7804    1.4661    2.2236 H         1 <0>         0.0862
     42 H13         5.7886    1.6288    0.4511 H         1 <0>         0.0755
     43 H14         4.2669    1.8173    1.3551 H         1 <0>         0.0750
     44 H15         8.7608   -0.2352    6.0755 H         1 <0>         0.1687
     45 H16        10.8152   -2.7931    2.5812 H         1 <0>         0.1641
     46 H17        13.0623   -3.4555    3.9111 H         1 <0>         0.1607
     47 H18        12.8966   -2.3831    6.2960 H         1 <0>         0.2158
@<TRIPOS>BOND
     1    1    2 1
     2    1   31 1
     3    1   32 1
     4    1   33 1
     5    2    3 1
     6    2   34 1
     7    2   35 1
     8    3    8 ar
     9    3    4 ar
    10    4    5 ar
    11    4   36 1
    12    5    6 ar
    13    5   37 1
    14    6    7 ar
    15    6   38 1
    16    7    8 ar
    17    7   39 1
    18    8    9 1
    19    9   10 am
    20    9   40 1
    21   10   11 2
    22   10   12 1
    23   12   13 1
    24   12   14 1
    25   12   15 1
    26   14   41 1
    27   14   42 1
    28   14   43 1
    29   15   16 1
    30   16   21 ar
    31   16   17 ar
    32   17   18 ar
    33   18   19 ar
    34   18   26 1
    35   19   20 ar
    36   19   44 1
    37   20   21 ar
    38   20   22 1
    39   22   23 1
    40   22   24 1
    41   22   25 1
    42   26   30 1
    43   26   27 2
    44   27   28 1
    45   27   45 1
    46   28   29 2
    47   28   46 1
    48   29   30 1
    49   29   47 1
@<TRIPOS>MOLECULE
ZINC11847174
   60    62     0     0     0
SMALL
USER_CHARGES
4-tert-butyl-N-[(2R)-2-(1-methylpyrrol-2-yl)-2-morpholino-ethyl]benzenesulfonamide
@<TRIPOS>ATOM
      1 C1          2.9943   11.3702   -0.0184 C.3       1 <0>        -0.1437
      2 C2          3.1222   10.1160    0.8486 C.3       1 <0>        -0.0419
      3 C3          3.4439   10.5219    2.2883 C.3       1 <0>        -0.1498
      4 C4          4.2465    9.2324    0.3044 C.3       1 <0>        -0.1400
      5 C5          1.8239    9.3513    0.8204 C.ar      1 <0>         0.0016
      6 C6          1.3262    8.8785   -0.3795 C.ar      1 <0>        -0.1336
      7 C7          0.1353    8.1771   -0.4054 C.ar      1 <0>        -0.0165
      8 C8         -0.5573    7.9476    0.7687 C.ar      1 <0>        -0.6924
      9 C9         -0.0620    8.4245    1.9679 C.ar      1 <0>        -0.0205
     10 C10         1.1311    9.1222    1.9944 C.ar      1 <0>        -0.1390
     11 S1         -2.0752    7.0534    0.7358 S.o2      1 <0>         2.6917
     12 O1         -2.6001    7.1925   -0.5774 O.2       1 <0>        -0.9365
     13 O2         -2.8023    7.4448    1.8922 O.2       1 <0>        -0.9398
     14 N1         -1.7040    5.4513    0.9298 N.pl3     1 <0>        -1.1344
     15 C11        -1.1124    4.9833    2.1857 C.3       1 <0>         0.0849
     16 C12        -1.2307    3.4602    2.2689 C.3       1 <0>         0.1146
     17 H1         -2.2820    3.1806    2.3374 H         1 <0>         0.1522
     18 C13        -0.4987    2.9654    3.4897 C.2       1 <0>        -0.0437
     19 C14         0.5657    2.1375    3.4917 C.2       1 <0>        -0.1971
     20 C15         0.9367    1.9309    4.8351 C.2       1 <0>        -0.1836
     21 C16         0.0849    2.6405    5.6028 C.2       1 <0>         0.0299
     22 N2         -0.7948    3.2822    4.7823 N.pl3     1 <0>        -0.4235
     23 C17        -1.8811    4.1634    5.2178 C.3       1 <0>         0.0476
     24 C18         0.7582    3.2762    0.8986 C.3       1 <0>        -0.0715
     25 C19         1.3144    2.6734   -0.3942 C.3       1 <0>         0.0378
     26 O3          1.1762    1.2506   -0.3499 O.3       1 <0>        -0.3530
     27 C20        -0.1741    0.8081   -0.1884 C.3       1 <0>         0.0364
     28 C21        -0.7451    1.3910    1.1070 C.3       1 <0>        -0.0616
     29 H2          2.1933   11.9997    0.3693 H         1 <0>         0.0601
     30 H3          3.9333   11.9233    0.0020 H         1 <0>         0.0685
     31 H4          2.7651   11.0811   -1.0440 H         1 <0>         0.0604
     32 H5          3.5350    9.6284    2.9059 H         1 <0>         0.0599
     33 H6          4.3829   11.0750    2.3087 H         1 <0>         0.0675
     34 H7          2.6429   11.1513    2.6759 H         1 <0>         0.0622
     35 H8          4.0173    8.9433   -0.7212 H         1 <0>         0.0595
     36 H9          5.1855    9.7855    0.3248 H         1 <0>         0.0681
     37 H10         4.3376    8.3389    0.9221 H         1 <0>         0.0566
     38 H11         1.8675    9.0575   -1.2967 H         1 <0>         0.1368
     39 H12        -0.2538    7.8080   -1.3428 H         1 <0>         0.1412
     40 H13        -0.6053    8.2490    2.8847 H         1 <0>         0.1388
     41 H14         1.5202    9.4913    2.9318 H         1 <0>         0.1416
     42 H15        -1.8782    4.8226    0.2119 H         1 <0>         0.4092
     43 H16        -1.6395    5.4351    3.0261 H         1 <0>         0.1270
     44 H17        -0.0610    5.2686    2.2206 H         1 <0>         0.1038
     45 H18         1.0454    1.7108    2.6233 H         1 <0>         0.1522
     46 H19         1.7535    1.3174    5.1857 H         1 <0>         0.1520
     47 H20         0.1000    2.6950    6.6813 H         1 <0>         0.1793
     48 H21        -2.7550    3.5640    5.4729 H         1 <0>         0.0899
     49 H22        -1.5611    4.7298    6.0923 H         1 <0>         0.1016
     50 H23        -2.1356    4.8520    4.4120 H         1 <0>         0.0891
     51 H24         1.3467    2.9254    1.7463 H         1 <0>         0.1634
     52 H25         0.8090    4.3636    0.8444 H         1 <0>         0.1414
     53 H26         2.3681    2.9339   -0.4933 H         1 <0>         0.1435
     54 H27         0.7606    3.0665   -1.2468 H         1 <0>         0.0810
     55 H28        -0.7718    1.1469   -1.0346 H         1 <0>         0.0810
     56 H29        -0.1969   -0.2806   -0.1394 H         1 <0>         0.1447
     57 H30        -1.7918    1.1031    1.2054 H         1 <0>         0.1425
     58 H31        -0.1805    1.0095    1.9577 H         1 <0>         0.1626
     59 N3         -0.6544    2.8649    1.0438 N.4       1 <0>        -0.3840
     60 H32        -1.1846    3.1975    0.2299 H         1 <0>         0.4240
@<TRIPOS>BOND
     1    1    2 1
     2    1   29 1
     3    1   30 1
     4    1   31 1
     5    2    3 1
     6    2    4 1
     7    2    5 1
     8    3   32 1
     9    3   33 1
    10    3   34 1
    11    4   35 1
    12    4   36 1
    13    4   37 1
    14    5   10 ar
    15    5    6 ar
    16    6    7 ar
    17    6   38 1
    18    7    8 ar
    19    7   39 1
    20    8    9 ar
    21    8   11 1
    22    9   10 ar
    23    9   40 1
    24   10   41 1
    25   11   12 2
    26   11   13 2
    27   11   14 1
    28   14   15 1
    29   14   42 1
    30   15   16 1
    31   15   43 1
    32   15   44 1
    33   16   17 1
    34   16   18 1
    35   16   59 1
    36   18   22 1
    37   18   19 2
    38   19   20 1
    39   19   45 1
    40   20   21 2
    41   20   46 1
    42   21   22 1
    43   21   47 1
    44   22   23 1
    45   23   48 1
    46   23   49 1
    47   23   50 1
    48   24   25 1
    49   24   51 1
    50   24   52 1
    51   24   59 1
    52   25   26 1
    53   25   53 1
    54   25   54 1
    55   26   27 1
    56   27   28 1
    57   27   55 1
    58   27   56 1
    59   28   57 1
    60   28   58 1
    61   28   59 1
    62   59   60 1
@<TRIPOS>MOLECULE
ZINC24493236
   54    57     0     0     0
SMALL
USER_CHARGES
N-[(2R)-2-(2-furyl)-2-(1-piperidyl)ethyl]-2-[5-methyl-2-(2-thienyl)oxazol-4-yl]acetamide
@<TRIPOS>ATOM
      1 C1          1.2435    0.2813   -0.7850 C.3       1 <0>        -0.0748
      2 C2          0.2241    0.6070    0.2761 C.2       1 <0>        -0.0156
      3 C3          0.4822    0.9459    1.5515 C.2       1 <0>        -0.0037
      4 N1         -0.6914    1.1557    2.1680 N.2       1 <0>        -0.4561
      5 C4         -1.6617    0.9541    1.3034 C.2       1 <0>         0.2867
      6 O1         -1.1159    0.6181    0.1205 O.3       1 <0>        -0.1844
      7 C5         -3.0999    1.0812    1.5808 C.2       1 <0>        -0.1224
      8 C6         -4.1723    0.8870    0.7299 C.2       1 <0>        -0.1038
      9 C7         -5.4424    1.0674    1.2261 C.2       1 <0>        -0.1647
     10 C8         -5.6032    1.4279    2.5262 C.2       1 <0>        -0.1600
     11 S1         -3.9176    1.5190    3.1064 S.3       1 <0>         0.1467
     12 C9          1.8474    1.0680    2.1779 C.3       1 <0>        -0.0556
     13 C10         2.3515    2.4786    2.0128 C.2       1 <0>         0.5266
     14 O2          1.6693    3.3035    1.4426 O.2       1 <0>        -0.5017
     15 N2          3.5604    2.8234    2.4988 N.am      1 <0>        -0.7579
     16 C11         4.0504    4.1947    2.3382 C.3       1 <0>         0.1006
     17 C12         5.4860    4.2875    2.8592 C.3       1 <0>         0.1312
     18 H1          5.8352    5.3306    2.8677 H         1 <0>         0.1707
     19 C13         6.3912    3.4549    1.9883 C.2       1 <0>        -0.1017
     20 C14         7.1865    3.9206    1.0085 C.2       1 <0>        -0.1304
     21 C15         7.8539    2.8030    0.4567 C.2       1 <0>        -0.2101
     22 C16         7.4265    1.7212    1.1324 C.2       1 <0>         0.0078
     23 O3          6.5451    2.1228    2.0627 O.3       1 <0>        -0.1838
     24 N3          5.5393    3.7879    4.2395 N.4       1 <0>        -0.4006
     25 C17         4.6458    4.5591    5.1132 C.3       1 <0>        -0.0134
     26 C18         4.6161    3.9225    6.5045 C.3       1 <0>        -0.1444
     27 C19         6.0340    3.9035    7.0822 C.3       1 <0>        -0.1408
     28 C20         6.9546    3.1356    6.1295 C.3       1 <0>        -0.1445
     29 C21         6.9165    3.7951    4.7491 C.3       1 <0>        -0.0038
     30 H2          2.2543    0.3563   -0.3577 H         1 <0>         0.0894
     31 H3          1.1443    0.9916   -1.6190 H         1 <0>         0.0883
     32 H4          1.0759   -0.7418   -1.1528 H         1 <0>         0.0896
     33 H5         -4.0165    0.6009   -0.2997 H         1 <0>         0.1426
     34 H6         -6.3026    0.9244    0.5890 H         1 <0>         0.1459
     35 H7         -6.5181    1.6085    3.0711 H         1 <0>         0.1968
     36 H8          1.7826    0.8247    3.2487 H         1 <0>         0.1188
     37 H9          2.5408    0.3708    1.6849 H         1 <0>         0.1171
     38 H10         4.1791    2.0753    3.0160 H         1 <0>         0.4089
     39 H11         4.0282    4.4696    1.2733 H         1 <0>         0.1180
     40 H12         3.4083    4.8826    2.9079 H         1 <0>         0.1025
     41 H13         7.2949    4.9506    0.7024 H         1 <0>         0.1610
     42 H14         8.5693    2.8154   -0.3523 H         1 <0>         0.1633
     43 H15         7.7418    0.7029    0.9589 H         1 <0>         0.2186
     44 H16         5.0124    5.5933    5.1915 H         1 <0>         0.1327
     45 H17         3.6306    4.5610    4.6896 H         1 <0>         0.1348
     46 H18         3.9581    4.5094    7.1623 H         1 <0>         0.1156
     47 H19         4.2353    2.8933    6.4288 H         1 <0>         0.0886
     48 H20         6.3976    4.9355    7.1956 H         1 <0>         0.0827
     49 H21         6.0231    3.4086    8.0645 H         1 <0>         0.0962
     50 H22         7.9833    3.1548    6.5187 H         1 <0>         0.1141
     51 H23         6.6123    2.0933    6.0494 H         1 <0>         0.0883
     52 H24         7.5659    3.2370    4.0586 H         1 <0>         0.1297
     53 H25         7.2725    4.8328    4.8291 H         1 <0>         0.1298
     54 H26         5.1882    2.7454    4.2371 H         1 <0>         0.4308
@<TRIPOS>BOND
     1    1    2 1
     2    1   30 1
     3    1   31 1
     4    1   32 1
     5    2    6 1
     6    2    3 2
     7    3    4 1
     8    3   12 1
     9    4    5 2
    10    5    6 1
    11    5    7 1
    12    7   11 1
    13    7    8 2
    14    8    9 1
    15    8   33 1
    16    9   10 2
    17    9   34 1
    18   10   11 1
    19   10   35 1
    20   12   13 1
    21   12   36 1
    22   12   37 1
    23   13   14 2
    24   13   15 am
    25   15   16 1
    26   15   38 1
    27   16   17 1
    28   16   39 1
    29   16   40 1
    30   17   18 1
    31   17   19 1
    32   17   24 1
    33   19   23 1
    34   19   20 2
    35   20   21 1
    36   20   41 1
    37   21   22 2
    38   21   42 1
    39   22   23 1
    40   22   43 1
    41   24   29 1
    42   24   25 1
    43   24   54 1
    44   25   26 1
    45   25   44 1
    46   25   45 1
    47   26   27 1
    48   26   46 1
    49   26   47 1
    50   27   28 1
    51   27   48 1
    52   27   49 1
    53   28   29 1
    54   28   50 1
    55   28   51 1
    56   29   52 1
    57   29   53 1
@<TRIPOS>MOLECULE
ZINC20687165
   65    67     0     0     0
SMALL
USER_CHARGES

@<TRIPOS>ATOM
      1 C1         -0.0187    1.5258    0.0104 C.3       1 <0>        -0.1476
      2 C2          0.0021   -0.0041    0.0020 C.3       1 <0>        -0.1426
      3 C3         -1.4333   -0.5336    0.0129 C.3       1 <0>         0.0846
      4 H1         -1.9857   -0.1016   -0.8216 H         1 <0>         0.1529
      5 C4         -1.4151   -2.0354   -0.1213 C.2       1 <0>         0.5041
      6 O1         -1.5022   -2.5501   -1.2162 O.2       1 <0>        -0.5046
      7 N1         -1.3011   -2.8046    0.9818 N.am      1 <0>        -0.5332
      8 C5         -1.3291   -2.1973    2.2447 C.ar      1 <0>         0.1033
      9 C6         -0.9898   -2.9163    3.3797 C.ar      1 <0>        -0.1251
     10 C7         -1.0096   -2.2991    4.6167 C.ar      1 <0>        -0.0762
     11 C8         -1.3664   -0.9674    4.7238 C.ar      1 <0>        -0.1074
     12 C9         -1.7109   -0.2458    3.5955 C.ar      1 <0>        -0.0990
     13 C10        -1.6989   -0.8587    2.3541 C.ar      1 <0>         0.0792
     14 O2         -2.0656   -0.1688    1.2417 O.3       1 <0>        -0.2933
     15 C11        -0.6418   -3.0800    5.8520 C.3       1 <0>        -0.1132
     16 C12        -1.1505   -4.2568    0.8606 C.3       1 <0>         0.0876
     17 C13         0.3135   -4.6047    0.7777 C.2       1 <0>         0.5009
     18 O3          1.1487   -3.7262    0.8161 O.2       1 <0>        -0.5103
     19 N2          0.6945   -5.8922    0.6610 N.am      1 <0>        -0.7351
     20 C14         2.1177   -6.2305    0.5804 C.3       1 <0>         0.1251
     21 C15         2.2750   -7.7471    0.4538 C.3       1 <0>        -0.1629
     22 C16         3.7613   -8.1004    0.3696 C.3       1 <0>        -0.0060
     23 N3          3.9124   -9.5565    0.2482 N.4       1 <0>        -0.3819
     24 C17         3.4199  -10.2017    1.4711 C.3       1 <0>        -0.0113
     25 C18         3.4998  -11.7221    1.3179 C.3       1 <0>        -0.1098
     26 H2          2.8882  -12.0353    0.4717 H         1 <0>         0.0935
     27 C19         4.9559  -12.1294    1.0748 C.3       1 <0>        -0.1314
     28 C20         5.4822  -11.3931   -0.1606 C.3       1 <0>        -0.1102
     29 H3          4.9117  -11.6994   -1.0374 H         1 <0>         0.0937
     30 C21         5.3289   -9.8849    0.0475 C.3       1 <0>        -0.0057
     31 C22         6.9593  -11.7337   -0.3676 C.3       1 <0>        -0.1519
     32 C23         2.9873  -12.3920    2.5944 C.3       1 <0>        -0.1517
     33 H4          1.0039    1.9031    0.0027 H         1 <0>         0.0638
     34 H5         -0.5459    1.8868   -0.8726 H         1 <0>         0.0618
     35 H6         -0.5289    1.8773    0.9072 H         1 <0>         0.0652
     36 H7          0.5123   -0.3556   -0.8948 H         1 <0>         0.0839
     37 H8          0.5293   -0.3651    0.8851 H         1 <0>         0.0747
     38 H9         -0.7108   -3.9565    3.2982 H         1 <0>         0.1225
     39 H10        -1.3764   -0.4892    5.6921 H         1 <0>         0.1368
     40 H11        -1.9888    0.7942    3.6825 H         1 <0>         0.1431
     41 H12         0.4304   -2.9954    6.0295 H         1 <0>         0.0723
     42 H13        -1.1845   -2.6811    6.7090 H         1 <0>         0.0732
     43 H14        -0.9052   -4.1282    5.7110 H         1 <0>         0.0646
     44 H15        -1.5904   -4.7417    1.7321 H         1 <0>         0.1206
     45 H16        -1.6573   -4.6007   -0.0410 H         1 <0>         0.1274
     46 H17         0.0265   -6.5949    0.6303 H         1 <0>         0.4048
     47 H18         2.5576   -5.7456   -0.2911 H         1 <0>         0.0788
     48 H19         2.6245   -5.8866    1.4820 H         1 <0>         0.0791
     49 H20         1.8351   -8.2320    1.3253 H         1 <0>         0.0954
     50 H21         1.7682   -8.0910   -0.4478 H         1 <0>         0.0960
     51 H22         4.2012   -7.6155   -0.5018 H         1 <0>         0.1362
     52 H23         4.2681   -7.7565    1.2713 H         1 <0>         0.1342
     53 H24         4.0317   -9.8897    2.3176 H         1 <0>         0.1297
     54 H25         2.3846   -9.9084    1.6445 H         1 <0>         0.1307
     55 H26         5.5588  -11.8623    1.9426 H         1 <0>         0.0832
     56 H27         5.0106  -13.2053    0.9086 H         1 <0>         0.0951
     57 H28         5.7028   -9.3576   -0.8302 H         1 <0>         0.1315
     58 H29         5.8999   -9.5796    0.9243 H         1 <0>         0.1296
     59 H30         7.0676  -12.8086   -0.5122 H         1 <0>         0.0782
     60 H31         7.3333  -11.2093   -1.2470 H         1 <0>         0.0690
     61 H32         7.5295  -11.4257    0.5088 H         1 <0>         0.0676
     62 H33         1.9520  -12.0985    2.7682 H         1 <0>         0.0682
     63 H34         3.0444  -13.4749    2.4846 H         1 <0>         0.0782
     64 H35         3.6003  -12.0796    3.4399 H         1 <0>         0.0675
     65 H36         3.3770   -9.8844   -0.5417 H         1 <0>         0.4227
@<TRIPOS>BOND
     1    1    2 1
     2    1   33 1
     3    1   34 1
     4    1   35 1
     5    2    3 1
     6    2   36 1
     7    2   37 1
     8    3    4 1
     9    3   14 1
    10    3    5 1
    11    5    6 2
    12    5    7 am
    13    7    8 1
    14    7   16 1
    15    8   13 ar
    16    8    9 ar
    17    9   10 ar
    18    9   38 1
    19   10   11 ar
    20   10   15 1
    21   11   12 ar
    22   11   39 1
    23   12   13 ar
    24   12   40 1
    25   13   14 1
    26   15   41 1
    27   15   42 1
    28   15   43 1
    29   16   17 1
    30   16   44 1
    31   16   45 1
    32   17   18 2
    33   17   19 am
    34   19   20 1
    35   19   46 1
    36   20   21 1
    37   20   47 1
    38   20   48 1
    39   21   22 1
    40   21   49 1
    41   21   50 1
    42   22   23 1
    43   22   51 1
    44   22   52 1
    45   23   30 1
    46   23   24 1
    47   23   65 1
    48   24   25 1
    49   24   53 1
    50   24   54 1
    51   25   26 1
    52   25   27 1
    53   25   32 1
    54   27   28 1
    55   27   55 1
    56   27   56 1
    57   28   29 1
    58   28   30 1
    59   28   31 1
    60   30   57 1
    61   30   58 1
    62   31   59 1
    63   31   60 1
    64   31   61 1
    65   32   62 1
    66   32   63 1
    67   32   64 1
@<TRIPOS>MOLECULE
ZINC59060753
   67    70     0     0     0
SMALL
USER_CHARGES

@<TRIPOS>ATOM
      1 C1          1.3742   -5.3283   -1.2532 C.3       1 <0>        -0.1512
      2 C2          1.2989   -5.3526    0.2748 C.3       1 <0>        -0.1107
      3 H1          2.0945   -5.9852    0.6684 H         1 <0>         0.0939
      4 C3         -0.0597   -5.9086    0.7111 C.3       1 <0>        -0.1297
      5 C4         -0.1552   -5.8557    2.2386 C.3       1 <0>        -0.1122
      6 H2         -1.1409   -6.1980    2.5538 H         1 <0>         0.1216
      7 C5          0.0597   -4.4152    2.7080 C.3       1 <0>        -0.0051
      8 N1          1.3856   -3.9508    2.2828 N.4       1 <0>        -0.3834
      9 C6          1.4610   -3.9309    0.8170 C.3       1 <0>        -0.0187
     10 C7          1.6182   -2.5964    2.8019 C.3       1 <0>         0.0402
     11 C8          3.0411   -2.1879    2.5200 C.ar      1 <0>        -0.1195
     12 C9          3.9408   -3.1134    2.0246 C.ar      1 <0>        -0.1412
     13 C10         5.2458   -2.7387    1.7661 C.ar      1 <0>        -0.0879
     14 C11         5.6514   -1.4382    2.0024 C.ar      1 <0>        -0.0956
     15 C12         4.7517   -0.5128    2.4968 C.ar      1 <0>        -0.0786
     16 C13         3.4452   -0.8865    2.7514 C.ar      1 <0>        -0.0812
     17 C14         2.4629    0.1238    3.2855 C.3       1 <0>         0.1523
     18 N2          2.2281   -0.1286    4.7093 N.am      1 <0>        -0.7318
     19 C15         1.3793    0.6564    5.4019 C.2       1 <0>         0.5031
     20 O1          0.8098    1.5718    4.8465 O.2       1 <0>        -0.5135
     21 C16         1.1379    0.3966    6.8666 C.3       1 <0>         0.0788
     22 N3          0.1829    1.3788    7.3858 N.am      1 <0>        -0.5679
     23 C17         0.5572    2.5619    7.9029 C.2       1 <0>         0.5330
     24 O2          1.6746    3.0314    7.8766 O.2       1 <0>        -0.4651
     25 C18        -0.6765    3.2098    8.5289 C.3       1 <0>        -0.1042
     26 H3         -0.7079    4.2747    8.2983 H         1 <0>         0.1267
     27 C19        -0.6068    2.9952   10.0284 C.3       1 <0>        -0.1068
     28 C20        -1.9802    3.0092   10.6849 C.3       1 <0>        -0.1190
     29 C21        -2.8289    1.8971   10.0586 C.3       1 <0>        -0.1225
     30 C22        -3.0711    2.2504    8.5957 C.3       1 <0>        -0.1048
     31 C23        -1.8006    2.4762    7.8109 C.3       1 <0>        -0.1125
     32 H4         -2.0350    3.0281    6.9006 H         1 <0>         0.1212
     33 C24        -1.1488    1.1801    7.3826 C.2       1 <0>         0.5425
     34 O3         -1.7205    0.1513    7.0921 O.2       1 <0>        -0.4762
     35 C25         0.9186   -6.7585    2.8492 C.3       1 <0>        -0.1709
     36 H5          2.3407   -4.9310   -1.5630 H         1 <0>         0.0682
     37 H6          1.2571   -6.3411   -1.6388 H         1 <0>         0.0784
     38 H7          0.5783   -4.6956   -1.6461 H         1 <0>         0.0679
     39 H8         -0.8569   -5.3068    0.2750 H         1 <0>         0.0843
     40 H9         -0.1557   -6.9412    0.3755 H         1 <0>         0.0960
     41 H10        -0.7064   -3.7736    2.2726 H         1 <0>         0.1319
     42 H11        -0.0079   -4.3739    3.7951 H         1 <0>         0.1318
     43 H12         2.4274   -3.5327    0.5080 H         1 <0>         0.1366
     44 H13         0.6655   -3.2990    0.4220 H         1 <0>         0.1312
     45 H14         0.9366   -1.8987    2.3153 H         1 <0>         0.1412
     46 H15         1.4431   -2.5847    3.8777 H         1 <0>         0.1387
     47 H16         3.6240   -4.1292    1.8400 H         1 <0>         0.1180
     48 H17         5.9488   -3.4619    1.3798 H         1 <0>         0.1387
     49 H18         6.6713   -1.1456    1.8010 H         1 <0>         0.1405
     50 H19         5.0686    0.5030    2.6817 H         1 <0>         0.1408
     51 H20         2.8677    1.1276    3.1564 H         1 <0>         0.0899
     52 H21         1.5222    0.0387    2.7414 H         1 <0>         0.0816
     53 H22         2.6836   -0.8608    5.1536 H         1 <0>         0.4032
     54 H23         0.7330   -0.6071    6.9957 H         1 <0>         0.1245
     55 H24         2.0786    0.4817    7.4106 H         1 <0>         0.1257
     56 H25        -0.1320    2.0339   10.2252 H         1 <0>         0.0625
     57 H26         0.0027    3.7839   10.4694 H         1 <0>         0.0837
     58 H27        -1.8765    2.8321   11.7554 H         1 <0>         0.0760
     59 H28        -2.4577    3.9742   10.5148 H         1 <0>         0.0743
     60 H29        -2.2976    0.9476   10.1246 H         1 <0>         0.0618
     61 H30        -3.7822    1.8229   10.5818 H         1 <0>         0.0778
     62 H31        -3.6346    1.4429    8.1282 H         1 <0>         0.0816
     63 H32        -3.6655    3.1629    8.5488 H         1 <0>         0.0815
     64 H33         1.9041   -6.4147    2.5350 H         1 <0>         0.0491
     65 H34         0.8501   -6.7204    3.9364 H         1 <0>         0.0737
     66 H35         0.7665   -7.7836    2.5114 H         1 <0>         0.0863
     67 H36         2.0914   -4.5738    2.6458 H         1 <0>         0.4198
@<TRIPOS>BOND
     1    1    2 1
     2    1   36 1
     3    1   37 1
     4    1   38 1
     5    2    3 1
     6    2    9 1
     7    2    4 1
     8    4    5 1
     9    4   39 1
    10    4   40 1
    11    5    6 1
    12    5    7 1
    13    5   35 1
    14    7    8 1
    15    7   41 1
    16    7   42 1
    17    8    9 1
    18    8   10 1
    19    8   67 1
    20    9   43 1
    21    9   44 1
    22   10   11 1
    23   10   45 1
    24   10   46 1
    25   11   16 ar
    26   11   12 ar
    27   12   13 ar
    28   12   47 1
    29   13   14 ar
    30   13   48 1
    31   14   15 ar
    32   14   49 1
    33   15   16 ar
    34   15   50 1
    35   16   17 1
    36   17   18 1
    37   17   51 1
    38   17   52 1
    39   18   19 am
    40   18   53 1
    41   19   20 2
    42   19   21 1
    43   21   22 1
    44   21   54 1
    45   21   55 1
    46   22   33 am
    47   22   23 am
    48   23   24 2
    49   23   25 1
    50   25   26 1
    51   25   31 1
    52   25   27 1
    53   27   28 1
    54   27   56 1
    55   27   57 1
    56   28   29 1
    57   28   58 1
    58   28   59 1
    59   29   30 1
    60   29   60 1
    61   29   61 1
    62   30   31 1
    63   30   62 1
    64   30   63 1
    65   31   32 1
    66   31   33 1
    67   33   34 2
    68   35   64 1
    69   35   65 1
    70   35   66 1
@<TRIPOS>MOLECULE
ZINC64540788
   61    64     0     0     0
SMALL
USER_CHARGES

@<TRIPOS>ATOM
      1 C1         -0.0184    1.5028    0.0103 C.3       1 <0>        -0.1187
      2 C2          0.0021   -0.0041    0.0020 C.ar      1 <0>        -0.0850
      3 C3          0.0057   -0.6888   -1.1991 C.ar      1 <0>        -0.1100
      4 C4          0.0245   -2.0707   -1.2067 C.ar      1 <0>        -0.1155
      5 C5          0.0400   -2.7685   -0.0132 C.ar      1 <0>        -0.1071
      6 C6          0.0373   -2.0840    1.1875 C.ar      1 <0>        -0.1113
      7 C7          0.0229   -0.7015    1.1951 C.ar      1 <0>        -0.1027
      8 C8          0.0538   -2.8445    2.4885 C.3       1 <0>         0.1620
      9 N1          1.4402   -3.0731    2.9030 N.am      1 <0>        -0.7256
     10 C9          1.7009   -3.7386    4.0456 C.2       1 <0>         0.5112
     11 O1          0.7878   -4.1482    4.7306 O.2       1 <0>        -0.5369
     12 C10         3.1271   -3.9737    4.4720 C.3       1 <0>        -0.1387
     13 C11         3.1439   -4.7458    5.7927 C.3       1 <0>        -0.0732
     14 C12         2.5269   -3.8828    6.8957 C.3       1 <0>        -0.1369
     15 C13         2.5137   -4.6718    8.2087 C.3       1 <0>         0.1123
     16 N2          3.8784   -5.1339    8.4965 N.am      1 <0>        -0.5909
     17 C14         4.5981   -5.8958    7.4668 C.3       1 <0>         0.0895
     18 C15         4.5879   -5.0931    6.1621 C.3       1 <0>        -0.1342
     19 C16         4.4593   -4.8636    9.6822 C.2       1 <0>         0.5219
     20 O2          3.8549   -4.2333   10.5239 O.2       1 <0>        -0.5024
     21 C17         5.8598   -5.3445    9.9623 C.3       1 <0>         0.0737
     22 H1          6.5519   -4.9321    9.2281 H         1 <0>         0.1922
     23 C18         5.9076   -6.8556    9.9322 C.2       1 <0>         0.0256
     24 C19         6.3054   -7.2437   11.1638 C.ar      1 <0>        -0.1592
     25 C20         6.5403   -8.5651   11.7607 C.ar      1 <0>         0.0271
     26 C21         6.9428   -8.6421   13.0474 C.ar      1 <0>        -0.2109
     27 C22         7.1422   -7.4881   13.8288 C.ar      1 <0>         0.3018
     28 C23         6.9443   -6.2356   13.3443 C.ar      1 <0>        -0.2707
     29 C24         6.5218   -6.0444   12.0052 C.ar      1 <0>         0.3562
     30 N3          6.2672   -4.9539   11.3165 N.pl3     1 <0>        -0.5700
     31 O3          7.5470   -7.6334   15.1148 O.3       1 <0>        -0.2805
     32 C25         7.7435   -8.9680   15.5863 C.3       1 <0>         0.0075
     33 H2          1.0042    1.8801    0.0026 H         1 <0>         0.0723
     34 H3         -0.5455    1.8639   -0.8728 H         1 <0>         0.0696
     35 H4         -0.5286    1.8543    0.9071 H         1 <0>         0.0678
     36 H5         -0.0064   -0.1437   -2.1314 H         1 <0>         0.1253
     37 H6          0.0266   -2.6056   -2.1449 H         1 <0>         0.1263
     38 H7          0.0540   -3.8484   -0.0191 H         1 <0>         0.1232
     39 H8          0.0246   -0.1666    2.1333 H         1 <0>         0.1227
     40 H9         -0.4637   -2.2663    3.2539 H         1 <0>         0.0771
     41 H10        -0.4484   -3.8028    2.3555 H         1 <0>         0.0779
     42 H11         2.1705   -2.7454    2.3551 H         1 <0>         0.4029
     43 H12         3.6446   -4.5519    3.7065 H         1 <0>         0.0985
     44 H13         3.6293   -3.0154    4.6049 H         1 <0>         0.0952
     45 H14         2.5660   -5.6637    5.6841 H         1 <0>         0.0876
     46 H15         3.1186   -2.9761    7.0220 H         1 <0>         0.0646
     47 H16         1.5062   -3.6164    6.6211 H         1 <0>         0.1050
     48 H17         2.1674   -4.0289    9.0180 H         1 <0>         0.0989
     49 H18         1.8498   -5.5308    8.1122 H         1 <0>         0.0844
     50 H19         5.6271   -6.0605    7.7864 H         1 <0>         0.0821
     51 H20         4.1041   -6.8547    7.3097 H         1 <0>         0.0915
     52 H21         5.0341   -5.6881    5.3653 H         1 <0>         0.0892
     53 H22         5.1601   -4.1750    6.2953 H         1 <0>         0.0740
     54 H23         5.6714   -7.4957    9.0951 H         1 <0>         0.2132
     55 H24         6.3929   -9.4628   11.1786 H         1 <0>         0.1739
     56 H25         7.1157   -9.6129   13.4879 H         1 <0>         0.1684
     57 H26         7.1098   -5.3804   13.9827 H         1 <0>         0.1696
     58 H27         6.8079   -9.5219   15.5094 H         1 <0>         0.0770
     59 H28         8.5067   -9.4582   14.9819 H         1 <0>         0.0771
     60 H29         8.0658   -8.9418   16.6272 H         1 <0>         0.1248
     61 H30         6.3364   -4.0446   11.6471 H         1 <0>         0.4596
@<TRIPOS>BOND
     1    1    2 1
     2    1   33 1
     3    1   34 1
     4    1   35 1
     5    2    7 ar
     6    2    3 ar
     7    3    4 ar
     8    3   36 1
     9    4    5 ar
    10    4   37 1
    11    5    6 ar
    12    5   38 1
    13    6    7 ar
    14    6    8 1
    15    7   39 1
    16    8    9 1
    17    8   40 1
    18    8   41 1
    19    9   10 am
    20    9   42 1
    21   10   11 2
    22   10   12 1
    23   12   13 1
    24   12   43 1
    25   12   44 1
    26   13   18 1
    27   13   14 1
    28   13   45 1
    29   14   15 1
    30   14   46 1
    31   14   47 1
    32   15   16 1
    33   15   48 1
    34   15   49 1
    35   16   17 1
    36   16   19 am
    37   17   18 1
    38   17   50 1
    39   17   51 1
    40   18   52 1
    41   18   53 1
    42   19   20 2
    43   19   21 1
    44   21   22 1
    45   21   30 1
    46   21   23 1
    47   23   24 2
    48   23   54 1
    49   24   29 ar
    50   24   25 ar
    51   25   26 ar
    52   25   55 1
    53   26   27 ar
    54   26   56 1
    55   27   28 ar
    56   27   31 1
    57   28   29 ar
    58   28   57 1
    59   29   30 2
    60   30   61 1
    61   31   32 1
    62   32   58 1
    63   32   59 1
    64   32   60 1
@<TRIPOS>MOLECULE
ZINC11869760
   64    66     0     0     0
SMALL
USER_CHARGES
N-[(1R)-1-[7-[(E)-3-(4-methoxyphenyl)prop-2-enyl]-5,6,8,9-tetrahydro-[1,2,4]triazolo[4,5-d][1,4]diazepin-3-yl]-3-methyl-butyl]acetamide
@<TRIPOS>ATOM
      1 C1          0.3932    1.7274    2.4098 C.3       1 <0>        -0.1515
      2 C2         -0.6451    2.0146    1.3234 C.3       1 <0>        -0.0927
      3 C3         -0.8911    3.5223    1.2390 C.3       1 <0>        -0.1494
      4 C4         -0.1278    1.5060   -0.0237 C.3       1 <0>        -0.1295
      5 C5         -0.0200   -0.0197    0.0145 C.3       1 <0>         0.2394
      6 H1          0.6183   -0.3181    0.8461 H         1 <0>         0.1018
      7 C6          0.5759   -0.5136   -1.2785 C.2       1 <0>         0.1810
      8 N1         -0.0301   -0.5871   -2.4346 N.2       1 <0>        -0.2232
      9 N2          0.7822   -1.0456   -3.3228 N.2       1 <0>        -0.2591
     10 C7          1.9388   -1.2786   -2.7751 C.2       1 <0>         0.1388
     11 N3          1.8374   -0.9578   -1.4618 N.pl3     1 <0>        -0.4860
     12 C8          2.8883   -1.1101   -0.4553 C.3       1 <0>         0.0833
     13 C9          4.2549   -0.9953   -1.1372 C.3       1 <0>        -0.0234
     14 C10         3.7899   -2.9040   -2.5737 C.3       1 <0>        -0.0101
     15 C11         3.1879   -1.7945   -3.4417 C.3       1 <0>        -0.0455
     16 C12         6.0735   -2.2653   -2.1037 C.3       1 <0>         0.0402
     17 C13         6.5964   -3.6668   -2.2869 C.2       1 <0>        -0.2692
     18 C14         7.0680   -4.0496   -3.4656 C.2       1 <0>        -0.0003
     19 C15         7.5808   -5.4239   -3.6452 C.ar      1 <0>        -0.1447
     20 C16         7.5748   -6.3185   -2.5739 C.ar      1 <0>        -0.0531
     21 C17         8.0496   -7.6012   -2.7467 C.ar      1 <0>        -0.2147
     22 C18         8.5431   -8.0002   -3.9818 C.ar      1 <0>         0.1593
     23 C19         8.5555   -7.1115   -5.0487 C.ar      1 <0>        -0.1547
     24 C20         8.0776   -5.8288   -4.8851 C.ar      1 <0>        -0.0450
     25 O1          9.0153   -9.2634   -4.1468 O.3       1 <0>        -0.3094
     26 C21         8.9730  -10.1257   -3.0080 C.3       1 <0>         0.0227
     27 N4         -1.3539   -0.5993    0.1903 N.am      1 <0>        -0.7319
     28 C22        -2.3168   -0.3637   -0.7228 C.2       1 <0>         0.5056
     29 O2         -2.0789    0.3282   -1.6901 O.2       1 <0>        -0.4884
     30 C23        -3.6889   -0.9599   -0.5420 C.3       1 <0>        -0.1713
     31 H2          1.3262    2.2345    2.1640 H         1 <0>         0.0544
     32 H3          0.0247    2.0897    3.3695 H         1 <0>         0.0621
     33 H4          0.5685    0.6532    2.4700 H         1 <0>         0.0481
     34 H5         -1.5781    1.5074    1.5693 H         1 <0>         0.0756
     35 H6          0.0402    4.0288    0.9856 H         1 <0>         0.0544
     36 H7         -1.6365    3.7264    0.4702 H         1 <0>         0.0583
     37 H8         -1.2524    3.8860    2.2009 H         1 <0>         0.0597
     38 H9          0.8546    1.9349   -0.2210 H         1 <0>         0.0676
     39 H10        -0.8186    1.8018   -0.8132 H         1 <0>         0.1011
     40 H11         2.8010   -2.0853    0.0237 H         1 <0>         0.1083
     41 H12         2.7882   -0.3250    0.2941 H         1 <0>         0.1385
     42 H13         4.9794   -0.5904   -0.4306 H         1 <0>         0.1566
     43 H14         4.1752   -0.3290   -1.9961 H         1 <0>         0.1474
     44 H15         2.9899   -3.4362   -2.0591 H         1 <0>         0.1284
     45 H16         4.3408   -3.6005   -3.2058 H         1 <0>         0.1499
     46 H17         2.9388   -2.1944   -4.4247 H         1 <0>         0.1452
     47 H18         3.9074   -0.9825   -3.5474 H         1 <0>         0.1088
     48 H19         6.0810   -1.7465   -3.0623 H         1 <0>         0.1332
     49 H20         6.7074   -1.7306   -1.3963 H         1 <0>         0.1368
     50 H21         6.5871   -4.3593   -1.4582 H         1 <0>         0.1363
     51 H22         7.0774   -3.3571   -4.2943 H         1 <0>         0.1310
     52 H23         7.1950   -6.0076   -1.6119 H         1 <0>         0.1266
     53 H24         8.0419   -8.2952   -1.9193 H         1 <0>         0.1358
     54 H25         8.9398   -7.4256   -6.0078 H         1 <0>         0.1411
     55 H26         8.0880   -5.1380   -5.7153 H         1 <0>         0.1376
     56 H27         9.5673   -9.6937   -2.2028 H         1 <0>         0.0604
     57 H28         7.9408  -10.2399   -2.6769 H         1 <0>         0.0599
     58 H29         9.3787  -11.1014   -3.2758 H         1 <0>         0.1089
     59 H30        -1.5442   -1.1526    0.9640 H         1 <0>         0.4061
     60 H31        -3.7123   -1.5458    0.3769 H         1 <0>         0.0734
     61 H32        -4.4274   -0.1604   -0.4819 H         1 <0>         0.0976
     62 H33        -3.9196   -1.6046   -1.3900 H         1 <0>         0.0960
     63 N5          4.7067   -2.3414   -1.5573 N.4       1 <0>        -0.3960
     64 H34         4.7103   -2.9593   -0.7373 H         1 <0>         0.4319
@<TRIPOS>BOND
     1    1    2 1
     2    1   31 1
     3    1   32 1
     4    1   33 1
     5    2    3 1
     6    2    4 1
     7    2   34 1
     8    3   35 1
     9    3   36 1
    10    3   37 1
    11    4    5 1
    12    4   38 1
    13    4   39 1
    14    5    6 1
    15    5    7 1
    16    5   27 1
    17    7   11 1
    18    7    8 2
    19    8    9 1
    20    9   10 2
    21   10   15 1
    22   10   11 1
    23   11   12 1
    24   12   13 1
    25   12   40 1
    26   12   41 1
    27   13   42 1
    28   13   43 1
    29   13   63 1
    30   14   15 1
    31   14   44 1
    32   14   45 1
    33   14   63 1
    34   15   46 1
    35   15   47 1
    36   16   17 1
    37   16   48 1
    38   16   49 1
    39   16   63 1
    40   17   18 2
    41   17   50 1
    42   18   19 1
    43   18   51 1
    44   19   24 ar
    45   19   20 ar
    46   20   21 ar
    47   20   52 1
    48   21   22 ar
    49   21   53 1
    50   22   23 ar
    51   22   25 1
    52   23   24 ar
    53   23   54 1
    54   24   55 1
    55   25   26 1
    56   26   56 1
    57   26   57 1
    58   26   58 1
    59   27   28 am
    60   27   59 1
    61   28   29 2
    62   28   30 1
    63   30   60 1
    64   30   61 1
    65   30   62 1
    66   63   64 1
@<TRIPOS>MOLECULE
ZINC29820719
   53    55     0     0     0
SMALL
USER_CHARGES
methyl (2S)-2-(4-chlorophenyl)-2-[4-[2-(2-furylmethylamino)-2-oxo-ethyl]piperazin-1-yl]acetate
@<TRIPOS>ATOM
      1 C1         -0.6417    4.3142    2.8882 C.3       1 <0>         0.0316
      2 O1         -0.4200    3.4803    1.7204 O.3       1 <0>        -0.3531
      3 C2         -1.4843    2.8288    1.2258 C.2       1 <0>         0.4651
      4 O2         -2.5654    2.9513    1.7513 O.2       1 <0>        -0.4799
      5 C3         -1.3295    1.9397    0.0189 C.3       1 <0>         0.1467
      6 H1         -0.3363    1.4668    0.0213 H         1 <0>         0.0968
      7 C4         -1.5124    2.7571   -1.2339 C.ar      1 <0>        -0.1088
      8 C5         -2.7769    3.1682   -1.6122 C.ar      1 <0>        -0.0734
      9 C6         -2.9446    3.9227   -2.7580 C.ar      1 <0>        -0.1135
     10 C7         -1.8480    4.2569   -3.5326 C.ar      1 <0>        -0.0182
     11 C8         -0.5834    3.8404   -3.1565 C.ar      1 <0>        -0.1091
     12 C9         -0.4163    3.0907   -2.0074 C.ar      1 <0>        -0.0821
     13 Cl1        -2.0588    5.1980   -4.9760 Cl        1 <0>        -0.0519
     14 N1         -2.3415    0.8758    0.0615 N.3       1 <0>        -0.5235
     15 C10        -2.2061    0.0688    1.2822 C.3       1 <0>         0.0223
     16 C11        -3.3245   -0.9751    1.3271 C.3       1 <0>        -0.0013
     17 N2         -3.2492   -1.8218    0.1283 N.4       1 <0>        -0.3902
     18 C12        -3.3846   -1.0148   -1.0923 C.3       1 <0>         0.0033
     19 C13        -2.2661    0.0290   -1.1372 C.3       1 <0>         0.0259
     20 C14        -4.2612   -2.8858    0.1709 C.3       1 <0>        -0.0268
     21 C15        -3.9444   -3.8356    1.2973 C.2       1 <0>         0.5033
     22 O3         -2.9714   -3.6449    1.9957 O.2       1 <0>        -0.5330
     23 N3         -4.7423   -4.8969    1.5284 N.am      1 <0>        -0.7129
     24 C16        -4.4343   -5.8202    2.6233 C.3       1 <0>         0.2061
     25 C17        -5.4725   -6.9117    2.6670 C.2       1 <0>        -0.0635
     26 C18        -5.4090   -8.0844    2.0111 C.2       1 <0>        -0.1668
     27 C19        -6.5849   -8.7992    2.3355 C.2       1 <0>        -0.2194
     28 C20        -7.2966   -8.0206    3.1701 C.2       1 <0>        -0.0116
     29 O4         -6.6152   -6.8810    3.3720 O.3       1 <0>        -0.1718
     30 H2          0.3059    4.7862    3.1869 H         1 <0>         0.1117
     31 H3         -1.0193    3.6945    3.7149 H         1 <0>         0.0682
     32 H4         -1.3797    5.0936    2.6474 H         1 <0>         0.0700
     33 H5         -3.6334    2.9035   -1.0098 H         1 <0>         0.1428
     34 H6         -3.9321    4.2475   -3.0511 H         1 <0>         0.1402
     35 H7          0.2729    4.1006   -3.7609 H         1 <0>         0.1425
     36 H8          0.5708    2.7652   -1.7139 H         1 <0>         0.1385
     37 H9         -1.2299   -0.4381    1.2802 H         1 <0>         0.0683
     38 H10        -2.2779    0.7226    2.1639 H         1 <0>         0.1259
     39 H11        -3.2080   -1.5988    2.2256 H         1 <0>         0.1517
     40 H12        -4.2995   -0.4668    1.3575 H         1 <0>         0.1357
     41 H13        -3.3129   -1.6687   -1.9740 H         1 <0>         0.1419
     42 H14        -4.3608   -0.5078   -1.0903 H         1 <0>         0.1404
     43 H15        -2.3819    0.6536   -2.0352 H         1 <0>         0.1321
     44 H16        -1.2906   -0.4785   -1.1669 H         1 <0>         0.0692
     45 H17        -5.2540   -2.4412    0.3344 H         1 <0>         0.1592
     46 H18        -4.2575   -3.4338   -0.7829 H         1 <0>         0.1626
     47 H19        -5.6248   -5.0698    0.8949 H         1 <0>         0.4390
     48 H20        -3.4415   -6.2648    2.4597 H         1 <0>         0.1088
     49 H21        -4.4380   -5.2722    3.5771 H         1 <0>         0.0952
     50 H22        -4.6129   -8.4160    1.3610 H         1 <0>         0.1526
     51 H23        -6.8593   -9.7817    1.9808 H         1 <0>         0.1560
     52 H24        -8.2515   -8.2715    3.6079 H         1 <0>         0.2106
     53 H25        -2.2585   -2.2996    0.1114 H         1 <0>         0.4467
@<TRIPOS>BOND
     1    1    2 1
     2    1   30 1
     3    1   31 1
     4    1   32 1
     5    2    3 1
     6    3    4 2
     7    3    5 1
     8    5    6 1
     9    5    7 1
    10    5   14 1
    11    7   12 ar
    12    7    8 ar
    13    8    9 ar
    14    8   33 1
    15    9   10 ar
    16    9   34 1
    17   10   11 ar
    18   10   13 1
    19   11   12 ar
    20   11   35 1
    21   12   36 1
    22   14   19 1
    23   14   15 1
    24   15   16 1
    25   15   37 1
    26   15   38 1
    27   16   17 1
    28   16   39 1
    29   16   40 1
    30   17   18 1
    31   17   20 1
    32   17   53 1
    33   18   19 1
    34   18   41 1
    35   18   42 1
    36   19   43 1
    37   19   44 1
    38   20   21 1
    39   20   45 1
    40   20   46 1
    41   21   22 2
    42   21   23 am
    43   23   24 1
    44   23   47 1
    45   24   25 1
    46   24   48 1
    47   24   49 1
    48   25   29 1
    49   25   26 2
    50   26   27 1
    51   26   50 1
    52   27   28 2
    53   27   51 1
    54   28   29 1
    55   28   52 1
@<TRIPOS>MOLECULE
ZINC51501471
   43    45     0     0     0
SMALL
USER_CHARGES

@<TRIPOS>ATOM
      1 C1         -0.0178    1.4608    0.0101 C.3       1 <0>         0.0306
      2 N1          0.0021   -0.0041    0.0020 N.pl3     1 <0>        -0.3838
      3 C2          0.0086   -0.8102   -1.1042 C.2       1 <0>         0.0311
      4 C3          0.0285   -2.0813   -0.6599 C.2       1 <0>         0.0178
      5 N2          0.0339   -2.0521    0.6810 N.pl3     1 <0>        -0.4598
      6 C4          0.0233   -0.8111    1.0845 C.cat     1 <0>         0.2696
      7 C5          0.0299   -0.3544    2.5206 C.3       1 <0>         0.2629
      8 H1         -0.5442   -1.0547    3.1273 H         1 <0>         0.1535
      9 C6          1.4493   -0.3001    3.0240 C.ar      1 <0>        -0.0543
     10 C7          2.2492    0.7839    2.7167 C.ar      1 <0>        -0.1827
     11 C8          3.5566    0.8362    3.1790 C.ar      1 <0>         0.1882
     12 C9          4.0600   -0.2003    3.9498 C.ar      1 <0>        -0.2769
     13 C10         3.2555   -1.2869    4.2568 C.ar      1 <0>         0.1880
     14 C11         1.9470   -1.3318    3.7968 C.ar      1 <0>        -0.1673
     15 O1          3.7463   -2.3047    5.0118 O.3       1 <0>        -0.3042
     16 C12         5.0998   -2.1891    5.4554 C.3       1 <0>         0.0208
     17 O2          4.3429    1.9024    2.8761 O.3       1 <0>        -0.3070
     18 C13         5.6779    1.8894    3.3854 C.3       1 <0>         0.0211
     19 N3         -0.5719    0.9782    2.6120 N.pl3     1 <0>        -0.6720
     20 C14        -1.9436    1.1113    2.7145 C.2       1 <0>         0.0982
     21 C15        -2.7003    2.2813    2.8053 C.2       1 <0>        -0.1801
     22 C16        -4.0771    2.0693    2.8973 C.2       1 <0>         0.2189
     23 N4         -4.4956    0.8347    2.8887 N.2       1 <0>        -0.4438
     24 S1         -3.1113   -0.0928    2.7531 S.3       1 <0>         0.3937
     25 Cl1        -5.1882    3.3976    3.0190 Cl        1 <0>         0.0417
     26 C17        -2.1138    3.5878    2.8045 C.1       1 <0>         0.2583
     27 N5         -1.6486    4.6241    2.8039 N.1       1 <0>        -0.3744
     28 H2          1.0048    1.8381    0.0023 H         1 <0>         0.1161
     29 H3         -0.5450    1.8219   -0.8730 H         1 <0>         0.1264
     30 H4         -0.5280    1.8123    0.9069 H         1 <0>         0.1154
     31 H5         -0.0008   -0.4887   -2.1352 H         1 <0>         0.2288
     32 H6          0.0383   -2.9687   -1.2754 H         1 <0>         0.2315
     33 H7          1.8566    1.5909    2.1159 H         1 <0>         0.1293
     34 H8          5.0773   -0.1616    4.3102 H         1 <0>         0.1477
     35 H9          1.3185   -2.1760    4.0393 H         1 <0>         0.1460
     36 H10         5.3645   -3.0659    6.0464 H         1 <0>         0.1135
     37 H11         5.7607   -2.1203    4.5914 H         1 <0>         0.0614
     38 H12         5.2065   -1.2931    6.0668 H         1 <0>         0.0627
     39 H13         5.6510    1.8453    4.4742 H         1 <0>         0.0633
     40 H14         6.2056    1.0172    2.9994 H         1 <0>         0.0618
     41 H15         6.1955    2.7957    3.0712 H         1 <0>         0.1129
     42 H16        -0.0076    1.7670    2.6006 H         1 <0>         0.4296
     43 H17         0.0475   -2.8306    1.2596 H         1 <0>         0.4654
@<TRIPOS>BOND
     1    1    2 1
     2    1   28 1
     3    1   29 1
     4    1   30 1
     5    2    6 1
     6    2    3 1
     7    3    4 2
     8    3   31 1
     9    4    5 1
    10    4   32 1
    11    5    6 2
    12    5   43 1
    13    6    7 1
    14    7    8 1
    15    7    9 1
    16    7   19 1
    17    9   14 ar
    18    9   10 ar
    19   10   11 ar
    20   10   33 1
    21   11   12 ar
    22   11   17 1
    23   12   13 ar
    24   12   34 1
    25   13   14 ar
    26   13   15 1
    27   14   35 1
    28   15   16 1
    29   16   36 1
    30   16   37 1
    31   16   38 1
    32   17   18 1
    33   18   39 1
    34   18   40 1
    35   18   41 1
    36   19   20 1
    37   19   42 1
    38   20   24 1
    39   20   21 2
    40   21   22 1
    41   21   26 1
    42   22   23 2
    43   22   25 1
    44   23   24 1
    45   26   27 3
@<TRIPOS>MOLECULE
ZINC65168664
   55    57     0     0     0
SMALL
USER_CHARGES

@<TRIPOS>ATOM
      1 C1         -0.0187    1.5258    0.0104 C.3       1 <0>        -0.1545
      2 C2          0.0021   -0.0041    0.0020 C.3       1 <0>        -0.1046
      3 C3          0.7273   -0.4995   -1.2525 C.3       1 <0>        -0.1434
      4 C4          0.8143   -2.0267   -1.2151 C.3       1 <0>        -0.0064
      5 N1          1.5556   -2.4491   -0.0207 N.4       1 <0>        -0.3782
      6 C5          0.8289   -2.0398    1.1872 C.3       1 <0>        -0.0134
      7 C6          0.7425   -0.5130    1.2422 C.3       1 <0>        -0.1421
      8 C7          1.7038   -3.9106   -0.0295 C.3       1 <0>        -0.0394
      9 C8          2.5818   -4.3413    1.1472 C.3       1 <0>         0.1029
     10 C9          2.7361   -5.8634    1.1380 C.3       1 <0>        -0.1691
     11 S1          3.6521   -6.3872    2.6135 S.3       1 <0>         0.1120
     12 C10         3.7450   -8.1399    2.4577 C.2       1 <0>         0.1189
     13 N2          3.2540   -8.8599    1.4754 N.2       1 <0>        -0.2807
     14 N3          3.5064  -10.1033    1.6884 N.2       1 <0>        -0.2561
     15 C11         4.1676  -10.2273    2.8132 C.2       1 <0>         0.2356
     16 O1          4.3377   -8.9864    3.3211 O.3       1 <0>        -0.1918
     17 C12         4.6441  -11.4909    3.4130 C.ar      1 <0>         0.0415
     18 C13         5.3340  -11.4732    4.6260 C.ar      1 <0>        -0.1531
     19 C14         5.7785  -12.6599    5.1848 C.ar      1 <0>         0.1719
     20 C15         5.5387  -13.8651    4.5406 C.ar      1 <0>        -0.2700
     21 C16         4.8536  -13.8872    3.3342 C.ar      1 <0>         0.1724
     22 C17         4.4005  -12.7058    2.7711 C.ar      1 <0>        -0.1345
     23 O2          4.6218  -15.0705    2.7072 O.3       1 <0>        -0.3058
     24 C18         5.1116  -16.2506    3.3469 C.3       1 <0>         0.0229
     25 O3          6.4508  -12.6438    6.3658 O.3       1 <0>        -0.3079
     26 C19         6.8804  -13.9040    6.8850 C.3       1 <0>         0.0229
     27 O4          3.8687   -3.7313    1.0296 O.3       1 <0>        -0.5442
     28 H1          1.0039    1.9031    0.0027 H         1 <0>         0.0624
     29 H2         -0.5459    1.8868   -0.8726 H         1 <0>         0.0674
     30 H3         -0.5289    1.8773    0.9072 H         1 <0>         0.0678
     31 H4         -1.0201   -0.3825    0.0069 H         1 <0>         0.0886
     32 H5          0.1750   -0.1880   -2.1391 H         1 <0>         0.1134
     33 H6          1.7322   -0.0783   -1.2822 H         1 <0>         0.0891
     34 H7         -0.1911   -2.4469   -1.1856 H         1 <0>         0.1296
     35 H8          1.3299   -2.3828   -2.1070 H         1 <0>         0.1309
     36 H9         -0.1768   -2.4596    1.1654 H         1 <0>         0.1302
     37 H10         1.3553   -2.4054    2.0688 H         1 <0>         0.1314
     38 H11         1.7477   -0.0921    1.2642 H         1 <0>         0.0899
     39 H12         0.2010   -0.2112    2.1387 H         1 <0>         0.1133
     40 H13         0.7222   -4.3759    0.0602 H         1 <0>         0.1458
     41 H14         2.1699   -4.2229   -0.9640 H         1 <0>         0.1411
     42 H15         2.1157   -4.0290    2.0817 H         1 <0>         0.1364
     43 H16         1.7503   -6.3286    1.1381 H         1 <0>         0.1217
     44 H17         3.2814   -6.1680    0.2447 H         1 <0>         0.1163
     45 H18         5.5214  -10.5355    5.1280 H         1 <0>         0.1433
     46 H19         5.8867  -14.7887    4.9792 H         1 <0>         0.1457
     47 H20         3.8631  -12.7244    1.8345 H         1 <0>         0.1515
     48 H21         4.6543  -16.3466    4.3317 H         1 <0>         0.0595
     49 H22         4.8599  -17.1224    2.7430 H         1 <0>         0.1089
     50 H23         6.1942  -16.1831    3.4541 H         1 <0>         0.0595
     51 H24         7.4028  -13.7490    7.8290 H         1 <0>         0.1085
     52 H25         6.0133  -14.5435    7.0503 H         1 <0>         0.0597
     53 H26         7.5527  -14.3807    6.1717 H         1 <0>         0.0597
     54 H27         4.3422   -3.9652    0.2196 H         1 <0>         0.3951
     55 H28         2.4690   -2.0204   -0.0239 H         1 <0>         0.4275
@<TRIPOS>BOND
     1    1    2 1
     2    1   28 1
     3    1   29 1
     4    1   30 1
     5    2    7 1
     6    2    3 1
     7    2   31 1
     8    3    4 1
     9    3   32 1
    10    3   33 1
    11    4    5 1
    12    4   34 1
    13    4   35 1
    14    5    6 1
    15    5    8 1
    16    5   55 1
    17    6    7 1
    18    6   36 1
    19    6   37 1
    20    7   38 1
    21    7   39 1
    22    8    9 1
    23    8   40 1
    24    8   41 1
    25    9   10 1
    26    9   27 1
    27    9   42 1
    28   10   11 1
    29   10   43 1
    30   10   44 1
    31   11   12 1
    32   12   16 1
    33   12   13 2
    34   13   14 1
    35   14   15 2
    36   15   16 1
    37   15   17 1
    38   17   22 ar
    39   17   18 ar
    40   18   19 ar
    41   18   45 1
    42   19   20 ar
    43   19   25 1
    44   20   21 ar
    45   20   46 1
    46   21   22 ar
    47   21   23 1
    48   22   47 1
    49   23   24 1
    50   24   48 1
    51   24   49 1
    52   24   50 1
    53   25   26 1
    54   26   51 1
    55   26   52 1
    56   26   53 1
    57   27   54 1
@<TRIPOS>MOLECULE
ZINC67280366
   58    60     0     0     0
SMALL
USER_CHARGES

@<TRIPOS>ATOM
      1 C1         -0.0019    1.5101    0.0063 C.3       1 <0>        -0.1781
      2 C2          0.0081   -0.0199    0.0020 C.3       1 <0>         0.1035
      3 N1         -1.3699   -0.5173    0.0124 N.am      1 <0>        -0.6215
      4 C3         -2.0696   -0.7625   -1.2511 C.3       1 <0>         0.1614
      5 C4         -1.8272   -2.1830   -1.6921 C.ar      1 <0>        -0.0691
      6 C5         -0.7428   -2.4817   -2.4956 C.ar      1 <0>        -0.1025
      7 C6         -0.5204   -3.7847   -2.9002 C.ar      1 <0>        -0.0962
      8 C7         -1.3822   -4.7891   -2.5008 C.ar      1 <0>        -0.1605
      9 C8         -2.4662   -4.4905   -1.6966 C.ar      1 <0>        -0.0969
     10 C9         -2.6861   -3.1881   -1.2885 C.ar      1 <0>        -0.0886
     11 C10        -1.1404   -6.2094   -2.9426 C.3       1 <0>         0.0433
     12 N2         -0.2857   -6.8891   -1.9600 N.4       1 <0>        -0.3857
     13 C11        -1.0000   -6.9963   -0.6809 C.3       1 <0>        -0.0534
     14 C12         0.0483   -8.2336   -2.4485 C.3       1 <0>        -0.0475
     15 C13        -1.9938   -0.7493    1.1843 C.2       1 <0>         0.7077
     16 O1         -3.1375   -1.1621    1.1929 O.2       1 <0>        -0.5669
     17 N3         -1.3500   -0.5237    2.3467 N.am      1 <0>        -0.6820
     18 C14        -2.0286   -0.6721    3.5637 C.ar      1 <0>         0.1328
     19 C15        -2.9899   -1.6639    3.7061 C.ar      1 <0>        -0.0852
     20 C16        -3.6581   -1.8104    4.9053 C.ar      1 <0>        -0.1356
     21 C17        -3.3690   -0.9660    5.9689 C.ar      1 <0>         0.1730
     22 C18        -2.4081    0.0261    5.8263 C.ar      1 <0>        -0.1341
     23 C19        -1.7357    0.1690    4.6290 C.ar      1 <0>        -0.1128
     24 N4         -4.0473   -1.1147    7.1861 N.am      1 <0>        -0.5745
     25 C20        -3.8529   -0.2929    8.3970 C.3       1 <0>         0.0565
     26 C21        -5.0976   -0.6550    9.2416 C.3       1 <0>         0.0386
     27 O2         -5.4434   -1.9548    8.7246 O.3       1 <0>        -0.3178
     28 C22        -4.9972   -2.0289    7.4590 C.2       1 <0>         0.6447
     29 O3         -5.4052   -2.8371    6.6484 O.2       1 <0>        -0.4957
     30 H1          1.0233    1.8801   -0.0014 H         1 <0>         0.0739
     31 H2         -0.5257    1.8725   -0.8783 H         1 <0>         0.0645
     32 H3         -0.5105    1.8676    0.9016 H         1 <0>         0.0609
     33 H4          0.5167   -0.3774   -0.8933 H         1 <0>         0.0840
     34 H5          0.5318   -0.3823    0.8866 H         1 <0>         0.0745
     35 H6         -3.1388   -0.6029   -1.1113 H         1 <0>         0.1031
     36 H7         -1.6964   -0.0771   -2.0121 H         1 <0>         0.0955
     37 H8         -0.0694   -1.6971   -2.8076 H         1 <0>         0.1336
     38 H9          0.3265   -4.0180   -3.5285 H         1 <0>         0.1310
     39 H10        -3.1397   -5.2750   -1.3849 H         1 <0>         0.1311
     40 H11        -3.5309   -2.9554   -0.6571 H         1 <0>         0.1432
     41 H12        -2.0932   -6.7332   -3.0195 H         1 <0>         0.1353
     42 H13        -0.6468   -6.2085   -3.9145 H         1 <0>         0.1363
     43 H14        -0.3659   -7.5006    0.0482 H         1 <0>         0.1239
     44 H15        -1.2479   -5.9986   -0.3184 H         1 <0>         0.1231
     45 H16        -1.9164   -7.5691   -0.8233 H         1 <0>         0.1228
     46 H17         0.5783   -8.1541   -3.3977 H         1 <0>         0.1235
     47 H18         0.6824   -8.7379   -1.7194 H         1 <0>         0.1244
     48 H19        -0.8680   -8.8065   -2.5910 H         1 <0>         0.1227
     49 H20        -0.4170   -0.2586    2.3408 H         1 <0>         0.4061
     50 H21        -3.2151   -2.3205    2.8787 H         1 <0>         0.1435
     51 H22        -4.4061   -2.5817    5.0160 H         1 <0>         0.1571
     52 H23        -2.1836    0.6834    6.6534 H         1 <0>         0.1326
     53 H24        -0.9849    0.9375    4.5196 H         1 <0>         0.1321
     54 H25        -2.9366   -0.5760    8.9151 H         1 <0>         0.1007
     55 H26        -3.8476    0.7685    8.1490 H         1 <0>         0.1086
     56 H27        -4.8462   -0.7117   10.3007 H         1 <0>         0.1295
     57 H28        -5.9040    0.0585    9.0720 H         1 <0>         0.1002
     58 H29         0.5625   -6.3588   -1.8282 H         1 <0>         0.4253
@<TRIPOS>BOND
     1    1    2 1
     2    1   30 1
     3    1   31 1
     4    1   32 1
     5    2    3 1
     6    2   33 1
     7    2   34 1
     8    3    4 1
     9    3   15 am
    10    4    5 1
    11    4   35 1
    12    4   36 1
    13    5   10 ar
    14    5    6 ar
    15    6    7 ar
    16    6   37 1
    17    7    8 ar
    18    7   38 1
    19    8    9 ar
    20    8   11 1
    21    9   10 ar
    22    9   39 1
    23   10   40 1
    24   11   12 1
    25   11   41 1
    26   11   42 1
    27   12   13 1
    28   12   14 1
    29   12   58 1
    30   13   43 1
    31   13   44 1
    32   13   45 1
    33   14   46 1
    34   14   47 1
    35   14   48 1
    36   15   16 2
    37   15   17 am
    38   17   18 1
    39   17   49 1
    40   18   23 ar
    41   18   19 ar
    42   19   20 ar
    43   19   50 1
    44   20   21 ar
    45   20   51 1
    46   21   22 ar
    47   21   24 1
    48   22   23 ar
    49   22   52 1
    50   23   53 1
    51   24   28 am
    52   24   25 1
    53   25   26 1
    54   25   54 1
    55   25   55 1
    56   26   27 1
    57   26   56 1
    58   26   57 1
    59   27   28 1
    60   28   29 2
@<TRIPOS>MOLECULE
ZINC07614292
   49    51     0     0     0
SMALL
USER_CHARGES
ethyl 9-cyano-8-[2-(4-methoxyphenyl)acetyl]amino-7-thia-4-azabicyclo[4.3.0]nona-8,10-diene-4-carboxylate
@<TRIPOS>ATOM
      1 C1          4.4111    5.7966   10.8962 C.3       1 <0>        -0.1541
      2 C2          3.7581    7.0760   10.3692 C.3       1 <0>         0.0819
      3 O1          2.8763    6.7491    9.2630 O.3       1 <0>        -0.3688
      4 C3          2.2196    7.7709    8.6821 C.2       1 <0>         0.6578
      5 O2          2.3791    8.9049    9.0885 O.2       1 <0>        -0.5666
      6 N1          1.3854    7.5360    7.6500 N.am      1 <0>        -0.5950
      7 C4          0.6547    8.6316    6.9949 C.3       1 <0>         0.1298
      8 C5          1.1226    8.7644    5.5444 C.3       1 <0>        -0.0804
      9 C6          1.1350    7.3870    4.8938 C.2       1 <0>        -0.0446
     10 C7          1.1592    6.2589    5.6378 C.2       1 <0>        -0.2458
     11 S1          1.1690    4.9374    4.4611 S.3       1 <0>         0.2891
     12 C8          1.1401    5.8664    2.9987 C.2       1 <0>         0.0964
     13 C9          1.1297    7.1755    3.4560 C.2       1 <0>        -0.1335
     14 C10         1.1100    8.2794    2.5441 C.1       1 <0>         0.2663
     15 N2          1.0944    9.1552    1.8207 N.1       1 <0>        -0.4200
     16 N3          1.1348    5.4109    1.6876 N.am      1 <0>        -0.6228
     17 C11         1.1530    4.0873    1.4340 C.2       1 <0>         0.5092
     18 O3          1.1740    3.2943    2.3514 O.2       1 <0>        -0.4808
     19 C12         1.1472    3.5927    0.0105 C.3       1 <0>        -0.0883
     20 C13         1.1705    2.0859    0.0021 C.ar      1 <0>        -0.1176
     21 C14        -0.0167    1.3772    0.0096 C.ar      1 <0>        -0.0608
     22 C15         0.0021   -0.0041    0.0020 C.ar      1 <0>        -0.1499
     23 C16         1.2134   -0.6801   -0.0132 C.ar      1 <0>         0.1345
     24 C17         2.4032    0.0333   -0.0208 C.ar      1 <0>        -0.2066
     25 C18         2.3791    1.4145   -0.0132 C.ar      1 <0>        -0.0602
     26 O4          1.2345   -2.0389   -0.0203 O.3       1 <0>        -0.3169
     27 C19         2.5176   -2.6678   -0.0360 C.3       1 <0>         0.0260
     28 C20         1.1710    6.1695    7.1341 C.3       1 <0>         0.2038
     29 H1          3.6380    5.1088   11.2389 H         1 <0>         0.0677
     30 H2          4.9872    5.3276   10.0986 H         1 <0>         0.0672
     31 H3          5.0731    6.0420   11.7267 H         1 <0>         0.0834
     32 H4          4.5312    7.7639   10.0266 H         1 <0>         0.0712
     33 H5          3.1820    7.5450   11.1668 H         1 <0>         0.0720
     34 H6         -0.4138    8.4174    7.0135 H         1 <0>         0.0848
     35 H7          0.8473    9.5643    7.5250 H         1 <0>         0.1064
     36 H8          0.4409    9.4180    5.0003 H         1 <0>         0.0926
     37 H9          2.1275    9.1862    5.5231 H         1 <0>         0.0878
     38 H10         1.1179    6.0451    0.9539 H         1 <0>         0.4230
     39 H11         2.0264    3.9726   -0.5098 H         1 <0>         0.1125
     40 H12         0.2468    3.9449   -0.4929 H         1 <0>         0.1136
     41 H13        -0.9595    1.9040    0.0169 H         1 <0>         0.1289
     42 H14        -0.9255   -0.5572    0.0076 H         1 <0>         0.1330
     43 H15         3.3475   -0.4907   -0.0323 H         1 <0>         0.1298
     44 H16         3.3051    1.9703   -0.0194 H         1 <0>         0.1240
     45 H17         3.0613   -2.3618   -0.9298 H         1 <0>         0.0564
     46 H18         3.0787   -2.3708    0.8501 H         1 <0>         0.0569
     47 H19         2.3916   -3.7505   -0.0402 H         1 <0>         0.1019
     48 H20         0.2160    5.7834    7.4906 H         1 <0>         0.0953
     49 H21         1.9814    5.5178    7.4608 H         1 <0>         0.1097
@<TRIPOS>BOND
     1    1    2 1
     2    1   29 1
     3    1   30 1
     4    1   31 1
     5    2    3 1
     6    2   32 1
     7    2   33 1
     8    3    4 1
     9    4    5 2
    10    4    6 am
    11    6   28 1
    12    6    7 1
    13    7    8 1
    14    7   34 1
    15    7   35 1
    16    8    9 1
    17    8   36 1
    18    8   37 1
    19    9   13 1
    20    9   10 2
    21   10   11 1
    22   10   28 1
    23   11   12 1
    24   12   13 2
    25   12   16 1
    26   13   14 1
    27   14   15 3
    28   16   17 am
    29   16   38 1
    30   17   18 2
    31   17   19 1
    32   19   20 1
    33   19   39 1
    34   19   40 1
    35   20   25 ar
    36   20   21 ar
    37   21   22 ar
    38   21   41 1
    39   22   23 ar
    40   22   42 1
    41   23   24 ar
    42   23   26 1
    43   24   25 ar
    44   24   43 1
    45   25   44 1
    46   26   27 1
    47   27   45 1
    48   27   46 1
    49   27   47 1
    50   28   48 1
    51   28   49 1
@<TRIPOS>MOLECULE
ZINC20543203
   50    52     0     0     0
SMALL
USER_CHARGES
methyl 3-[[4-[(4-methoxyphenyl)methyl]piperazine-1-carbonyl]amino]thiophene-2-carboxylate
@<TRIPOS>ATOM
      1 C1          2.2438    3.9670    0.3604 C.3       1 <0>         0.0234
      2 O1          1.0154    3.2373    0.3875 O.3       1 <0>        -0.3179
      3 C2          1.0993    1.8843    0.2915 C.ar      1 <0>         0.1294
      4 C3         -0.0540    1.1134    0.3111 C.ar      1 <0>        -0.1518
      5 C4          0.0339   -0.2617    0.2129 C.ar      1 <0>        -0.0758
      6 C5          1.2700   -0.8699    0.0950 C.ar      1 <0>        -0.1189
      7 C6          2.4210   -0.1039    0.0751 C.ar      1 <0>        -0.0555
      8 C7          2.3384    1.2716    0.1735 C.ar      1 <0>        -0.2082
      9 C8          1.3631   -2.3703   -0.0115 C.3       1 <0>         0.0980
     10 N1          1.3073   -2.7652   -1.4253 N.3       1 <0>        -0.5305
     11 C9         -0.0023   -2.4467   -2.0096 C.3       1 <0>         0.0353
     12 C10         0.0395   -2.7042   -3.5197 C.3       1 <0>         0.1116
     13 N2          0.5032   -4.0816   -3.7460 N.am      1 <0>        -0.6198
     14 C11         1.7399   -4.5178   -3.0801 C.3       1 <0>         0.1314
     15 C12         1.6311   -4.1888   -1.5874 C.3       1 <0>         0.0396
     16 C13        -0.1867   -4.9215   -4.5429 C.2       1 <0>         0.7099
     17 O2          0.2576   -6.0254   -4.7922 O.2       1 <0>        -0.5662
     18 N3         -1.3692   -4.5378   -5.0633 N.am      1 <0>        -0.6736
     19 C14        -2.1432   -5.4486   -5.7828 C.2       1 <0>         0.2719
     20 C15        -1.8366   -6.7928   -5.8132 C.2       1 <0>        -0.2220
     21 C16        -2.6227   -7.6356   -6.5287 C.2       1 <0>        -0.1446
     22 S1         -3.8321   -6.5887   -7.1961 S.3       1 <0>         0.1851
     23 C17        -3.2682   -5.0452   -6.5018 C.2       1 <0>        -0.3281
     24 C18        -3.8174   -3.7498   -6.6449 C.2       1 <0>         0.5678
     25 O3         -3.2910   -2.8012   -6.0931 O.2       1 <0>        -0.5262
     26 O4         -4.9255   -3.5654   -7.3933 O.3       1 <0>        -0.3467
     27 C19        -5.4255   -2.2306   -7.4942 C.3       1 <0>         0.0325
     28 H1          2.0329    5.0432    0.4457 H         1 <0>         0.1027
     29 H2          2.7666    3.7697   -0.5871 H         1 <0>         0.0573
     30 H3          2.8774    3.6497    1.2018 H         1 <0>         0.0570
     31 H4         -1.0200    1.5883    0.3987 H         1 <0>         0.1306
     32 H5         -0.8636   -0.8622    0.2285 H         1 <0>         0.1255
     33 H6          3.3853   -0.5813   -0.0170 H         1 <0>         0.1259
     34 H7          3.2377    1.8694    0.1580 H         1 <0>         0.1284
     35 H8          2.3127   -2.7108    0.4271 H         1 <0>         0.0872
     36 H9          0.5233   -2.8292    0.5308 H         1 <0>         0.0448
     37 H10        -0.7734   -3.0819   -1.5493 H         1 <0>         0.0407
     38 H11        -0.2395   -1.3889   -1.8233 H         1 <0>         0.0975
     39 H12        -0.9677   -2.5732   -3.9420 H         1 <0>         0.0818
     40 H13         0.7314   -1.9926   -3.9940 H         1 <0>         0.0866
     41 H14         1.8674   -5.6018   -3.2171 H         1 <0>         0.1016
     42 H15         2.5989   -3.9892   -3.5192 H         1 <0>         0.0794
     43 H16         2.5891   -4.4056   -1.0922 H         1 <0>         0.0940
     44 H17         0.8370   -4.7995   -1.1331 H         1 <0>         0.0414
     45 H18        -1.7241   -3.5064   -4.9208 H         1 <0>         0.4473
     46 H19        -0.9804   -7.1702   -5.2738 H         1 <0>         0.1892
     47 H20        -2.5194   -8.7034   -6.6531 H         1 <0>         0.1979
     48 H21        -6.3244   -2.2227   -8.1281 H         1 <0>         0.1062
     49 H22        -4.6561   -1.5837   -7.9409 H         1 <0>         0.0636
     50 H23        -5.6808   -1.8579   -6.4912 H         1 <0>         0.0634
@<TRIPOS>BOND
     1    1    2 1
     2    1   28 1
     3    1   29 1
     4    1   30 1
     5    2    3 1
     6    3    8 ar
     7    3    4 ar
     8    4    5 ar
     9    4   31 1
    10    5    6 ar
    11    5   32 1
    12    6    7 ar
    13    6    9 1
    14    7    8 ar
    15    7   33 1
    16    8   34 1
    17    9   10 1
    18    9   35 1
    19    9   36 1
    20   10   15 1
    21   10   11 1
    22   11   12 1
    23   11   37 1
    24   11   38 1
    25   12   13 1
    26   12   39 1
    27   12   40 1
    28   13   14 1
    29   13   16 am
    30   14   15 1
    31   14   41 1
    32   14   42 1
    33   15   43 1
    34   15   44 1
    35   16   17 2
    36   16   18 am
    37   18   19 1
    38   18   45 1
    39   19   23 2
    40   19   20 1
    41   20   21 2
    42   20   46 1
    43   21   22 1
    44   21   47 1
    45   22   23 1
    46   23   24 1
    47   24   25 2
    48   24   26 1
    49   26   27 1
    50   27   48 1
    51   27   49 1
    52   27   50 1
@<TRIPOS>MOLECULE
ZINC40797987
   53    55     0     0     0
SMALL
USER_CHARGES

@<TRIPOS>ATOM
      1 C1         -0.0184    1.5028    0.0103 C.3       1 <0>        -0.1152
      2 C2          0.0021   -0.0041    0.0020 C.ar      1 <0>        -0.0704
      3 C3          0.0058   -0.6869   -1.2004 C.ar      1 <0>        -0.1140
      4 C4          0.0186   -2.0697   -1.2161 C.ar      1 <0>        -0.0959
      5 C5          0.0310   -2.7733   -0.0238 C.ar      1 <0>         0.0686
      6 C6          0.0383   -2.0854    1.1876 C.ar      1 <0>         0.1066
      7 C7          0.0229   -0.6998    1.1967 C.ar      1 <0>        -0.1302
      8 N1          0.0857   -2.8048    2.3895 N.am      1 <0>        -0.5533
      9 C8          0.3418   -4.1293    2.3547 C.2       1 <0>         0.4989
     10 O1          0.2787   -4.7885    3.3709 O.2       1 <0>        -0.4581
     11 C9          0.7062   -4.7866    1.0476 C.3       1 <0>         0.0944
     12 O2          0.0253   -4.1334   -0.0260 O.3       1 <0>        -0.2928
     13 C10         2.2171   -4.6838    0.8297 C.3       1 <0>        -0.1671
     14 C11         0.3038   -6.2384    1.0870 C.2       1 <0>         0.5490
     15 O3          0.2067   -6.8121    2.1512 O.2       1 <0>        -0.4796
     16 N2          0.0518   -6.8992   -0.0603 N.am      1 <0>        -0.6938
     17 C12        -0.3394   -8.3105   -0.0219 C.3       1 <0>         0.1649
     18 H1          0.1825   -8.8101    0.7943 H         1 <0>         0.1330
     19 C13         0.0300   -8.9783   -1.3480 C.3       1 <0>        -0.0827
     20 C14         1.5285   -8.9842   -1.5072 C.ar      1 <0>        -0.0882
     21 C15         2.1621   -7.9222   -2.1252 C.ar      1 <0>        -0.1121
     22 C16         3.5367   -7.9276   -2.2712 C.ar      1 <0>        -0.1175
     23 C17         4.2778   -8.9946   -1.7989 C.ar      1 <0>        -0.1176
     24 C18         3.6443  -10.0561   -1.1802 C.ar      1 <0>        -0.1160
     25 C19         2.2701  -10.0488   -1.0303 C.ar      1 <0>        -0.1097
     26 C20        -1.8271   -8.4137    0.1953 C.2       1 <0>         0.4454
     27 O4         -2.4924   -7.4113    0.3066 O.2       1 <0>        -0.4880
     28 O5         -2.4131   -9.6193    0.2650 O.3       1 <0>        -0.3508
     29 C21        -3.8268   -9.6424    0.4724 C.3       1 <0>         0.0331
     30 C22        -0.1396   -2.1268    3.6685 C.3       1 <0>         0.0766
     31 H2          1.0042    1.8801    0.0026 H         1 <0>         0.0744
     32 H3         -0.5455    1.8639   -0.8728 H         1 <0>         0.0713
     33 H4         -0.5286    1.8543    0.9071 H         1 <0>         0.0683
     34 H5         -0.0018   -0.1383   -2.1307 H         1 <0>         0.1357
     35 H6          0.0185   -2.5999   -2.1570 H         1 <0>         0.1411
     36 H7          0.0229   -0.1646    2.1348 H         1 <0>         0.1360
     37 H8          2.7369   -5.1851    1.6462 H         1 <0>         0.0895
     38 H9          2.4811   -5.1588   -0.1151 H         1 <0>         0.0920
     39 H10         2.5097   -3.6341    0.8029 H         1 <0>         0.0807
     40 H11         0.1294   -6.4404   -0.9113 H         1 <0>         0.4126
     41 H12        -0.3400  -10.0036   -1.3539 H         1 <0>         0.1085
     42 H13        -0.4208   -8.4246   -2.1716 H         1 <0>         0.0886
     43 H14         1.5831   -7.0886   -2.4941 H         1 <0>         0.1201
     44 H15         4.0316   -7.0982   -2.7546 H         1 <0>         0.1231
     45 H16         5.3516   -8.9991   -1.9137 H         1 <0>         0.1222
     46 H17         4.2233  -10.8900   -0.8115 H         1 <0>         0.1238
     47 H18         1.7756  -10.8764   -0.5436 H         1 <0>         0.1257
     48 H19        -4.1718  -10.6758    0.5091 H         1 <0>         0.1052
     49 H20        -4.0641   -9.1465    1.4136 H         1 <0>         0.0611
     50 H21        -4.3228   -9.1227   -0.3473 H         1 <0>         0.0614
     51 H22        -1.2021   -2.1509    3.9103 H         1 <0>         0.0693
     52 H23         0.4231   -2.6336    4.4525 H         1 <0>         0.0877
     53 H24         0.1927   -1.0913    3.5943 H         1 <0>         0.0839
@<TRIPOS>BOND
     1    1    2 1
     2    1   31 1
     3    1   32 1
     4    1   33 1
     5    2    7 ar
     6    2    3 ar
     7    3    4 ar
     8    3   34 1
     9    4    5 ar
    10    4   35 1
    11    5   12 1
    12    5    6 ar
    13    6    7 ar
    14    6    8 1
    15    7   36 1
    16    8    9 am
    17    8   30 1
    18    9   10 2
    19    9   11 1
    20   11   12 1
    21   11   13 1
    22   11   14 1
    23   13   37 1
    24   13   38 1
    25   13   39 1
    26   14   15 2
    27   14   16 am
    28   16   17 1
    29   16   40 1
    30   17   18 1
    31   17   19 1
    32   17   26 1
    33   19   20 1
    34   19   41 1
    35   19   42 1
    36   20   25 ar
    37   20   21 ar
    38   21   22 ar
    39   21   43 1
    40   22   23 ar
    41   22   44 1
    42   23   24 ar
    43   23   45 1
    44   24   25 ar
    45   24   46 1
    46   25   47 1
    47   26   27 2
    48   26   28 1
    49   28   29 1
    50   29   48 1
    51   29   49 1
    52   29   50 1
    53   30   51 1
    54   30   52 1
    55   30   53 1
@<TRIPOS>MOLECULE
ZINC08527987
   54    56     0     0     0
SMALL
USER_CHARGES

@<TRIPOS>ATOM
      1 C1         -0.4920    1.3217    0.1022 C.3       1 <0>        -0.1584
      2 C2         -0.0709   -0.1490    0.0752 C.3       1 <0>         0.1773
      3 H1          0.4448   -0.3621   -0.8611 H         1 <0>         0.1090
      4 C3         -1.2931   -1.0236    0.1860 C.ar      1 <0>        -0.0981
      5 C4         -2.0549   -1.0039    1.3393 C.ar      1 <0>        -0.1148
      6 C5         -3.1760   -1.8062    1.4409 C.ar      1 <0>        -0.1203
      7 C6         -3.5355   -2.6279    0.3891 C.ar      1 <0>        -0.1172
      8 C7         -2.7742   -2.6470   -0.7646 C.ar      1 <0>        -0.1178
      9 C8         -1.6555   -1.8415   -0.8678 C.ar      1 <0>        -0.1045
     10 N1          0.8275   -0.4204    1.2002 N.am      1 <0>        -0.6032
     11 C9          0.4136   -0.0861    2.5652 C.3       1 <0>         0.0613
     12 C10         2.0346   -0.9776    0.9794 C.2       1 <0>         0.5065
     13 O1          2.3772   -1.2544   -0.1506 O.2       1 <0>        -0.5249
     14 C11         2.9587   -1.2568    2.1366 C.3       1 <0>         0.1007
     15 N2          4.1976   -1.8589    1.6379 N.am      1 <0>        -0.5606
     16 C12         4.3882   -3.1846    1.4880 C.2       1 <0>         0.5425
     17 O2          3.5968   -4.0703    1.7311 O.2       1 <0>        -0.4555
     18 C13         5.7975   -3.3379    0.9513 C.3       1 <0>         0.1761
     19 N3          6.2829   -1.9507    0.8518 N.am      1 <0>        -0.7153
     20 C14         5.2777   -1.1604    1.2697 C.2       1 <0>         0.7124
     21 O3          5.3443    0.0525    1.3113 O.2       1 <0>        -0.5368
     22 C15         5.7794   -4.0020   -0.4270 C.3       1 <0>        -0.1448
     23 C16         6.6474   -4.1295    1.9116 C.ar      1 <0>        -0.1372
     24 C17         6.0666   -5.0956    2.7123 C.ar      1 <0>        -0.0683
     25 C18         6.8434   -5.8222    3.5938 C.ar      1 <0>        -0.1457
     26 C19         8.2074   -5.5822    3.6748 C.ar      1 <0>         0.1391
     27 C20         8.7878   -4.6126    2.8700 C.ar      1 <0>        -0.2067
     28 C21         8.0075   -3.8923    1.9865 C.ar      1 <0>        -0.0536
     29 O4          8.9737   -6.2954    4.5415 O.3       1 <0>        -0.3147
     30 C22        10.3704   -5.9947    4.5713 C.3       1 <0>         0.0251
     31 H2          0.3920    1.9543    0.0221 H         1 <0>         0.0659
     32 H3         -1.1604    1.5236   -0.7348 H         1 <0>         0.0738
     33 H4         -1.0077    1.5348    1.0386 H         1 <0>         0.0634
     34 H5         -1.7740   -0.3619    2.1611 H         1 <0>         0.1253
     35 H6         -3.7708   -1.7913    2.3423 H         1 <0>         0.1229
     36 H7         -4.4110   -3.2553    0.4687 H         1 <0>         0.1223
     37 H8         -3.0549   -3.2892   -1.5863 H         1 <0>         0.1235
     38 H9         -1.0628   -1.8536   -1.7706 H         1 <0>         0.1225
     39 H10        -0.1385   -0.9231    2.9927 H         1 <0>         0.0667
     40 H11         1.2956    0.1158    3.1731 H         1 <0>         0.0760
     41 H12        -0.2241    0.7976    2.5454 H         1 <0>         0.0825
     42 H13         3.1894   -0.3237    2.6506 H         1 <0>         0.1299
     43 H14         2.4745   -1.9439    2.8306 H         1 <0>         0.1272
     44 H15         7.1561   -1.6629    0.5425 H         1 <0>         0.4404
     45 H16         5.1926   -3.3940   -1.1155 H         1 <0>         0.0757
     46 H17         6.7995   -4.0918   -0.8005 H         1 <0>         0.0824
     47 H18         5.3333   -4.9933   -0.3468 H         1 <0>         0.0866
     48 H19         5.0047   -5.2820    2.6488 H         1 <0>         0.1468
     49 H20         6.3892   -6.5762    4.2195 H         1 <0>         0.1370
     50 H21         9.8494   -4.4239    2.9313 H         1 <0>         0.1337
     51 H22         8.4596   -3.1405    1.3566 H         1 <0>         0.1258
     52 H23        10.8012   -6.1714    3.5858 H         1 <0>         0.0577
     53 H24        10.5113   -4.9497    4.8474 H         1 <0>         0.0573
     54 H25        10.8640   -6.6337    5.3035 H         1 <0>         0.1029
@<TRIPOS>BOND
     1    1    2 1
     2    1   31 1
     3    1   32 1
     4    1   33 1
     5    2    3 1
     6    2    4 1
     7    2   10 1
     8    4    9 ar
     9    4    5 ar
    10    5    6 ar
    11    5   34 1
    12    6    7 ar
    13    6   35 1
    14    7    8 ar
    15    7   36 1
    16    8    9 ar
    17    8   37 1
    18    9   38 1
    19   10   11 1
    20   10   12 am
    21   11   39 1
    22   11   40 1
    23   11   41 1
    24   12   13 2
    25   12   14 1
    26   14   15 1
    27   14   42 1
    28   14   43 1
    29   15   20 am
    30   15   16 am
    31   16   17 2
    32   16   18 1
    33   18   19 1
    34   18   22 1
    35   18   23 1
    36   19   20 am
    37   19   44 1
    38   20   21 2
    39   22   45 1
    40   22   46 1
    41   22   47 1
    42   23   28 ar
    43   23   24 ar
    44   24   25 ar
    45   24   48 1
    46   25   26 ar
    47   25   49 1
    48   26   27 ar
    49   26   29 1
    50   27   28 ar
    51   27   50 1
    52   28   51 1
    53   29   30 1
    54   30   52 1
    55   30   53 1
    56   30   54 1
@<TRIPOS>MOLECULE
ZINC66585848
   47    49     0     0     0
SMALL
USER_CHARGES

@<TRIPOS>ATOM
      1 C1         -0.0634    1.5020    0.0159 C.3       1 <0>        -0.1145
      2 C2         -0.0307   -0.0047    0.0059 C.ar      1 <0>        -0.0892
      3 C3         -0.6215   -0.7006   -1.0330 C.ar      1 <0>        -0.0920
      4 C4         -0.5940   -2.0814   -1.0455 C.ar      1 <0>        -0.1154
      5 C5          0.0281   -2.7716   -0.0136 C.ar      1 <0>         0.1535
      6 C6          0.6213   -2.0699    1.0288 C.ar      1 <0>        -0.0630
      7 C7          0.5946   -0.6879    1.0324 C.ar      1 <0>        -0.0897
      8 Cl1         1.4005   -2.9276    2.3214 Cl        1 <0>        -0.0640
      9 N1          0.0572   -4.1710   -0.0232 N.am      1 <0>        -0.6631
     10 C8         -0.0419   -4.8391   -1.1895 C.2       1 <0>         0.5204
     11 O1         -0.0553   -4.2299   -2.2382 O.2       1 <0>        -0.4882
     12 C9         -0.1360   -6.3432   -1.1907 C.3       1 <0>         0.0738
     13 H1         -0.9690   -6.6556   -0.5610 H         1 <0>         0.1175
     14 C10         1.1652   -6.9360   -0.6462 C.3       1 <0>        -0.1712
     15 O2         -0.3483   -6.8061   -2.5258 O.3       1 <0>        -0.3175
     16 C11        -1.0468   -7.9485   -2.6732 C.2       1 <0>         0.5199
     17 O3         -1.4642   -8.5356   -1.6952 O.2       1 <0>        -0.4955
     18 C12        -1.3051   -8.4873   -4.0244 C.ar      1 <0>        -0.1693
     19 C13        -2.0343   -9.6697   -4.1900 C.ar      1 <0>        -0.0126
     20 C14        -2.2499  -10.1340   -5.4868 C.ar      1 <0>        -0.0480
     21 C15        -1.7351   -9.4088   -6.5604 C.ar      1 <0>         0.1319
     22 N2         -1.0524   -8.2988   -6.3629 N.ar      1 <0>        -0.4792
     23 C16        -0.8302   -7.8211   -5.1558 C.ar      1 <0>         0.1512
     24 C17        -3.0167  -11.3839   -5.7212 C.2       1 <0>        -0.2074
     25 C18        -3.5929  -12.2046   -4.7322 C.2       1 <0>         0.0682
     26 N3         -4.1818  -13.2069   -5.3289 N.2       1 <0>        -0.2890
     27 N4         -4.0064  -13.0671   -6.7109 N.pl3     1 <0>        -0.3678
     28 C19        -3.2961  -11.9429   -6.9339 C.2       1 <0>         0.0806
     29 C20        -4.5123  -13.9813   -7.7378 C.3       1 <0>         0.0967
     30 H2          0.8128    1.8878   -0.5052 H         1 <0>         0.0744
     31 H3         -0.9667    1.8492   -0.4858 H         1 <0>         0.0708
     32 H4         -0.0599    1.8586    1.0459 H         1 <0>         0.0693
     33 H5         -1.1053   -0.1636   -1.8355 H         1 <0>         0.1346
     34 H6         -1.0562   -2.6239   -1.8569 H         1 <0>         0.1549
     35 H7          1.0592   -0.1413    1.8398 H         1 <0>         0.1386
     36 H8          0.1486   -4.6600    0.8095 H         1 <0>         0.4150
     37 H9          1.0971   -8.0239   -0.6470 H         1 <0>         0.0819
     38 H10         1.9983   -6.6236   -1.2759 H         1 <0>         0.0789
     39 H11         1.3271   -6.5829    0.3722 H         1 <0>         0.0829
     40 H12        -2.4194  -10.2081   -3.3367 H         1 <0>         0.1505
     41 H13        -1.8976   -9.7617   -7.5681 H         1 <0>         0.1619
     42 H14        -0.2700   -6.9052   -5.0395 H         1 <0>         0.1741
     43 H15        -3.5544  -12.0352   -3.6662 H         1 <0>         0.1882
     44 H16        -3.0001  -11.5561   -7.8978 H         1 <0>         0.1819
     45 H17        -5.5078  -13.6639   -8.0483 H         1 <0>         0.0800
     46 H18        -3.8424  -13.9686   -8.5975 H         1 <0>         0.0919
     47 H19        -4.5632  -14.9915   -7.3317 H         1 <0>         0.0935
@<TRIPOS>BOND
     1    1    2 1
     2    1   30 1
     3    1   31 1
     4    1   32 1
     5    2    7 ar
     6    2    3 ar
     7    3    4 ar
     8    3   33 1
     9    4    5 ar
    10    4   34 1
    11    5    6 ar
    12    5    9 1
    13    6    7 ar
    14    6    8 1
    15    7   35 1
    16    9   10 am
    17    9   36 1
    18   10   11 2
    19   10   12 1
    20   12   13 1
    21   12   14 1
    22   12   15 1
    23   14   37 1
    24   14   38 1
    25   14   39 1
    26   15   16 1
    27   16   17 2
    28   16   18 1
    29   18   23 ar
    30   18   19 ar
    31   19   20 ar
    32   19   40 1
    33   20   21 ar
    34   20   24 1
    35   21   22 ar
    36   21   41 1
    37   22   23 ar
    38   23   42 1
    39   24   28 2
    40   24   25 1
    41   25   26 2
    42   25   43 1
    43   26   27 1
    44   27   28 1
    45   27   29 1
    46   28   44 1
    47   29   45 1
    48   29   46 1
    49   29   47 1
@<TRIPOS>MOLECULE
ZINC05782581
   49    51     0     0     0
SMALL
USER_CHARGES
1-[(1,5-dimethyl-3-oxo-2-phenyl-pyrazol-4-yl)carbamoyl]ethyl 4-chlorobenzoate
@<TRIPOS>ATOM
      1 C1         -1.6710    4.6651    0.4777 C.3       1 <0>        -0.0994
      2 C2         -0.7674    3.4701    0.3147 C.2       1 <0>         0.1866
      3 C3         -1.1716    2.2019    0.0785 C.2       1 <0>        -0.0860
      4 C4          0.0308    1.3720   -0.0051 C.2       1 <0>         0.5453
      5 O1          0.0706    0.1714   -0.2053 O.2       1 <0>        -0.5110
      6 N1          1.0870    2.1916    0.1759 N.am      1 <0>        -0.3652
      7 N2          0.6010    3.4890    0.3740 N.pl3     1 <0>        -0.3920
      8 C5          1.4245    4.6781    0.6068 C.3       1 <0>         0.0982
      9 C6          2.4327    1.8113    0.1667 C.ar      1 <0>         0.1480
     10 C7          3.3556    2.5358   -0.5765 C.ar      1 <0>        -0.1285
     11 C8          4.6848    2.1606   -0.5792 C.ar      1 <0>        -0.1020
     12 C9          5.0951    1.0582    0.1478 C.ar      1 <0>        -0.1170
     13 C10         4.1778    0.3316    0.8847 C.ar      1 <0>        -0.0986
     14 C11         2.8482    0.7048    0.8963 C.ar      1 <0>        -0.1036
     15 N3         -2.5029    1.7606   -0.0577 N.am      1 <0>        -0.6312
     16 C12        -2.8910    1.1266   -1.1819 C.2       1 <0>         0.5189
     17 O2         -2.1208    1.0162   -2.1128 O.2       1 <0>        -0.4915
     18 C13        -4.2816    0.5547   -1.2827 C.3       1 <0>         0.0780
     19 H1         -5.0120    1.3374   -1.0778 H         1 <0>         0.1143
     20 C14        -4.4440   -0.5741   -0.2628 C.3       1 <0>        -0.1667
     21 O3         -4.4944    0.0324   -2.6207 O.3       1 <0>        -0.3214
     22 C15        -5.7549    0.0613   -3.0952 C.2       1 <0>         0.5133
     23 O4         -6.6517    0.5105   -2.4100 O.2       1 <0>        -0.5006
     24 C16        -6.0464   -0.4531   -4.4483 C.ar      1 <0>        -0.1245
     25 C17        -5.0164   -0.9650   -5.2408 C.ar      1 <0>        -0.0444
     26 C18        -5.2959   -1.4491   -6.5012 C.ar      1 <0>        -0.1237
     27 C19        -6.5931   -1.4180   -6.9863 C.ar      1 <0>        -0.0006
     28 C20        -7.6179   -0.9064   -6.2073 C.ar      1 <0>        -0.1235
     29 C21        -7.3522   -0.4245   -4.9431 C.ar      1 <0>        -0.0398
     30 Cl1        -6.9359   -2.0234   -8.5768 Cl        1 <0>        -0.0555
     31 H2         -1.8474    5.1227   -0.4958 H         1 <0>         0.0947
     32 H3         -2.6210    4.3464    0.9068 H         1 <0>         0.0944
     33 H4         -1.1984    5.3904    1.1399 H         1 <0>         0.0823
     34 H5          1.7286    5.1024   -0.3500 H         1 <0>         0.0740
     35 H6          0.8478    5.4159    1.1646 H         1 <0>         0.1010
     36 H7          2.3097    4.4005    1.1790 H         1 <0>         0.0853
     37 H8          3.0351    3.3942   -1.1481 H         1 <0>         0.1261
     38 H9          5.4037    2.7261   -1.1534 H         1 <0>         0.1323
     39 H10         6.1343    0.7642    0.1405 H         1 <0>         0.1307
     40 H11         4.5016   -0.5284    1.4520 H         1 <0>         0.1341
     41 H12         2.1323    0.1372    1.4722 H         1 <0>         0.1310
     42 H13        -3.1400    1.9132    0.6576 H         1 <0>         0.4067
     43 H14        -3.7135   -1.3568   -0.4677 H         1 <0>         0.0776
     44 H15        -4.2842   -0.1821    0.7417 H         1 <0>         0.0838
     45 H16        -5.4498   -0.9877   -0.3356 H         1 <0>         0.0777
     46 H17        -4.0039   -0.9853   -4.8655 H         1 <0>         0.1521
     47 H18        -4.5012   -1.8493   -7.1132 H         1 <0>         0.1451
     48 H19        -8.6273   -0.8852   -6.5909 H         1 <0>         0.1459
     49 H20        -8.1521   -0.0262   -4.3366 H         1 <0>         0.1492
@<TRIPOS>BOND
     1    1    2 1
     2    1   31 1
     3    1   32 1
     4    1   33 1
     5    2    7 1
     6    2    3 2
     7    3    4 1
     8    3   15 1
     9    4    5 2
    10    4    6 am
    11    6    7 1
    12    6    9 1
    13    7    8 1
    14    8   34 1
    15    8   35 1
    16    8   36 1
    17    9   14 ar
    18    9   10 ar
    19   10   11 ar
    20   10   37 1
    21   11   12 ar
    22   11   38 1
    23   12   13 ar
    24   12   39 1
    25   13   14 ar
    26   13   40 1
    27   14   41 1
    28   15   16 am
    29   15   42 1
    30   16   17 2
    31   16   18 1
    32   18   19 1
    33   18   20 1
    34   18   21 1
    35   20   43 1
    36   20   44 1
    37   20   45 1
    38   21   22 1
    39   22   23 2
    40   22   24 1
    41   24   29 ar
    42   24   25 ar
    43   25   26 ar
    44   25   46 1
    45   26   27 ar
    46   26   47 1
    47   27   28 ar
    48   27   30 1
    49   28   29 ar
    50   28   48 1
    51   29   49 1
@<TRIPOS>MOLECULE
ZINC09815109
   52    54     0     0     0
SMALL
USER_CHARGES
2-(2,4-dimethylphenyl)-N-[5-(3-isopropylsulfonylphenyl)-1,3,4-oxadiazol-2-yl]-acetamide
@<TRIPOS>ATOM
      1 C1         -4.6828  -11.4840    7.0477 C.3       1 <0>        -0.1178
      2 C2         -5.2981  -10.3299    6.2991 C.ar      1 <0>        -0.0734
      3 C3         -5.3867  -10.3691    4.9199 C.ar      1 <0>        -0.1258
      4 C4         -5.9506   -9.3105    4.2332 C.ar      1 <0>        -0.0938
      5 C5         -6.4260   -8.2122    4.9255 C.ar      1 <0>        -0.0889
      6 C6         -6.3326   -8.1706    6.3038 C.ar      1 <0>        -0.0593
      7 C7         -5.7733   -9.2319    6.9911 C.ar      1 <0>        -0.1206
      8 C8         -6.8452   -6.9708    7.0579 C.3       1 <0>        -0.1184
      9 C9         -7.0404   -7.0576    4.1767 C.3       1 <0>        -0.0867
     10 C10        -5.9932   -6.0011    3.9355 C.2       1 <0>         0.5118
     11 O1         -4.8596   -6.1691    4.3325 O.2       1 <0>        -0.4434
     12 N1         -6.3164   -4.8695    3.2786 N.am      1 <0>        -0.6179
     13 C11        -5.3534   -3.8980    3.0568 C.2       1 <0>         0.3905
     14 N2         -4.0976   -3.9511    3.4303 N.2       1 <0>        -0.2594
     15 N3         -3.4942   -2.8775    3.0580 N.2       1 <0>        -0.2473
     16 C12        -4.3415   -2.0970    2.4320 C.2       1 <0>         0.1949
     17 O2         -5.5374   -2.7245    2.4235 O.3       1 <0>        -0.2319
     18 C13        -4.0444   -0.7721    1.8488 C.ar      1 <0>        -0.0336
     19 C14        -5.0503   -0.0466    1.2077 C.ar      1 <0>        -0.0341
     20 C15        -4.7663    1.1897    0.6659 C.ar      1 <0>        -0.1345
     21 C16        -3.4891    1.7136    0.7616 C.ar      1 <0>        -0.0006
     22 C17        -2.4864    0.9975    1.3905 C.ar      1 <0>        -0.6582
     23 C18        -2.7569   -0.2402    1.9368 C.ar      1 <0>         0.0252
     24 S1         -0.8618    1.6708    1.5005 S.o2      1 <0>         2.4920
     25 O3         -0.2957    1.0654    2.6547 O.2       1 <0>        -0.9280
     26 O4         -1.0476    3.0782    1.4380 O.2       1 <0>        -0.9282
     27 C19        -0.0127    1.0858    0.0080 C.3       1 <0>        -0.5672
     28 C20         1.4227    1.6154   -0.0028 C.3       1 <0>        -0.1470
     29 C21        -0.7527    1.5927   -1.2315 C.3       1 <0>        -0.1463
     30 H1         -3.6112  -11.3168    7.1562 H         1 <0>         0.0727
     31 H2         -5.1401  -11.5623    8.0341 H         1 <0>         0.0671
     32 H3         -4.8522  -12.4077    6.4944 H         1 <0>         0.0674
     33 H4         -5.0150  -11.2269    4.3791 H         1 <0>         0.1233
     34 H5         -6.0195   -9.3410    3.1558 H         1 <0>         0.1218
     35 H6         -5.7038   -9.2011    8.0684 H         1 <0>         0.1234
     36 H7         -7.8931   -7.1241    7.3157 H         1 <0>         0.0741
     37 H8         -6.2624   -6.8384    7.9695 H         1 <0>         0.0709
     38 H9         -6.7508   -6.0820    6.4341 H         1 <0>         0.0599
     39 H10        -7.8543   -6.6347    4.7655 H         1 <0>         0.1142
     40 H11        -7.4282   -7.4097    3.2208 H         1 <0>         0.1136
     41 H12        -7.2230   -4.7352    2.9611 H         1 <0>         0.4280
     42 H13        -6.0487   -0.4523    1.1365 H         1 <0>         0.1411
     43 H14        -5.5436    1.7521    0.1701 H         1 <0>         0.1466
     44 H15        -3.2731    2.6840    0.3396 H         1 <0>         0.1520
     45 H16        -1.9743   -0.7962    2.4317 H         1 <0>         0.1596
     46 H17         0.0021   -0.0041    0.0020 H         1 <0>         0.1416
     47 H18         1.4079    2.7053    0.0031 H         1 <0>         0.0756
     48 H19         1.9499    1.2543    0.8802 H         1 <0>         0.0758
     49 H20         1.9329    1.2639   -0.8996 H         1 <0>         0.0873
     50 H21        -1.7753    1.2154   -1.2238 H         1 <0>         0.0695
     51 H22        -0.7675    2.6825   -1.2255 H         1 <0>         0.0795
     52 H23        -0.2425    1.2411   -2.1283 H         1 <0>         0.0827
@<TRIPOS>BOND
     1    1    2 1
     2    1   30 1
     3    1   31 1
     4    1   32 1
     5    2    7 ar
     6    2    3 ar
     7    3    4 ar
     8    3   33 1
     9    4    5 ar
    10    4   34 1
    11    5    6 ar
    12    5    9 1
    13    6    7 ar
    14    6    8 1
    15    7   35 1
    16    8   36 1
    17    8   37 1
    18    8   38 1
    19    9   10 1
    20    9   39 1
    21    9   40 1
    22   10   11 2
    23   10   12 am
    24   12   13 1
    25   12   41 1
    26   13   17 1
    27   13   14 2
    28   14   15 1
    29   15   16 2
    30   16   17 1
    31   16   18 1
    32   18   23 ar
    33   18   19 ar
    34   19   20 ar
    35   19   42 1
    36   20   21 ar
    37   20   43 1
    38   21   22 ar
    39   21   44 1
    40   22   23 ar
    41   22   24 1
    42   23   45 1
    43   24   25 2
    44   24   26 2
    45   24   27 1
    46   27   28 1
    47   27   29 1
    48   27   46 1
    49   28   47 1
    50   28   48 1
    51   28   49 1
    52   29   50 1
    53   29   51 1
    54   29   52 1
@<TRIPOS>MOLECULE
ZINC26075509
   60    63     0     0     0
SMALL
USER_CHARGES
2-[(2R)-2-methyl-3-oxo-1,4-benzoxazin-4-yl]-N-[(1R)-2-morpholino-1-(p-tolyl)ethyl]acetamide
@<TRIPOS>ATOM
      1 C1         12.1542    0.1207   -0.9224 C.3       1 <0>        -0.1206
      2 C2         10.6901    0.3747   -1.1732 C.ar      1 <0>        -0.0811
      3 C3          9.9210   -0.5834   -1.8069 C.ar      1 <0>        -0.1155
      4 C4          8.5781   -0.3501   -2.0374 C.ar      1 <0>        -0.1021
      5 C5          8.0043    0.8411   -1.6342 C.ar      1 <0>        -0.0988
      6 C6          8.7746    1.8013   -1.0052 C.ar      1 <0>        -0.1065
      7 C7         10.1163    1.5660   -0.7701 C.ar      1 <0>        -0.1170
      8 C8          6.5404    1.0956   -1.8859 C.3       1 <0>         0.1995
      9 H1          6.0131    0.1393   -2.0178 H         1 <0>         0.0975
     10 C9          6.3823    1.9849   -3.1207 C.3       1 <0>         0.0490
     11 N1          4.9582    2.2726   -3.3379 N.3       1 <0>        -0.5198
     12 C10         4.2514    1.0851   -3.8395 C.3       1 <0>         0.0244
     13 C11         2.7636    1.4110   -3.9946 C.3       1 <0>         0.0696
     14 O1          2.6155    2.5368   -4.8642 O.3       1 <0>        -0.3882
     15 C12         3.2908    3.7111   -4.4058 C.3       1 <0>         0.0645
     16 C13         4.7840    3.4084   -4.2548 C.3       1 <0>         0.0198
     17 N2          5.9543    1.7662   -0.7227 N.am      1 <0>        -0.7252
     18 C14         4.6792    1.5105   -0.3691 C.2       1 <0>         0.5135
     19 O2          3.9908    0.7905   -1.0608 O.2       1 <0>        -0.5134
     20 C15         4.1087    2.1194    0.8859 C.3       1 <0>         0.0869
     21 N3          2.7168    1.6919    1.0470 N.am      1 <0>        -0.5319
     22 C16         2.4087    0.5237    1.7586 C.ar      1 <0>         0.1045
     23 C17         3.3493   -0.0721    2.5824 C.ar      1 <0>        -0.1272
     24 C18         3.0255   -1.2248    3.2743 C.ar      1 <0>        -0.1101
     25 C19         1.7668   -1.7828    3.1459 C.ar      1 <0>        -0.1105
     26 C20         0.8229   -1.1920    2.3254 C.ar      1 <0>        -0.1082
     27 C21         1.1396   -0.0383    1.6298 C.ar      1 <0>         0.0850
     28 O3          0.2238    0.5563    0.8193 O.3       1 <0>        -0.3036
     29 C22         0.2822    1.9816    0.7203 C.3       1 <0>         0.0825
     30 H2         -0.1005    2.3703    1.6755 H         1 <0>         0.1026
     31 C23         1.7104    2.4170    0.5118 C.2       1 <0>         0.4984
     32 O4          1.9549    3.4144   -0.1336 O.2       1 <0>        -0.4957
     33 C24        -0.5695    2.4453   -0.4632 C.3       1 <0>        -0.1356
     34 H3         12.4258   -0.8722   -1.3102 H         1 <0>         0.0665
     35 H4         12.3530    0.1590    0.1588 H         1 <0>         0.0715
     36 H5         12.7524    0.8899   -1.4327 H         1 <0>         0.0714
     37 H6         10.3694   -1.5139   -2.1222 H         1 <0>         0.1241
     38 H7          7.9773   -1.0985   -2.5327 H         1 <0>         0.1223
     39 H8          8.3273    2.7338   -0.6942 H         1 <0>         0.1209
     40 H9         10.7173    2.3146   -0.2753 H         1 <0>         0.1239
     41 H10         6.9274    2.9277   -2.9657 H         1 <0>         0.0785
     42 H11         6.7900    1.4661   -4.0009 H         1 <0>         0.0445
     43 H12         4.6688    0.7948   -4.8150 H         1 <0>         0.0304
     44 H13         4.3749    0.2565   -3.1266 H         1 <0>         0.0999
     45 H14         2.2409    0.5431   -4.4229 H         1 <0>         0.0918
     46 H15         2.3353    1.6474   -3.0093 H         1 <0>         0.0622
     47 H16         3.1511    4.5226   -5.1351 H         1 <0>         0.0951
     48 H17         2.8764    4.0165   -3.4337 H         1 <0>         0.0605
     49 H18         5.2996    4.2907   -3.8477 H         1 <0>         0.0820
     50 H19         5.2100    3.1555   -5.2369 H         1 <0>         0.0390
     51 H20         6.5550    2.4784   -0.1379 H         1 <0>         0.4136
     52 H21         4.6969    1.7880    1.7543 H         1 <0>         0.1135
     53 H22         4.1493    3.2162    0.8125 H         1 <0>         0.1203
     54 H23         4.3327    0.3625    2.6844 H         1 <0>         0.1290
     55 H24         3.7577   -1.6905    3.9173 H         1 <0>         0.1313
     56 H25         1.5196   -2.6832    3.6886 H         1 <0>         0.1341
     57 H26        -0.1594   -1.6301    2.2280 H         1 <0>         0.1392
     58 H27        -0.5249    3.5417   -0.5397 H         1 <0>         0.0927
     59 H28        -1.6123    2.1306   -0.3101 H         1 <0>         0.0816
     60 H29        -0.1836    1.9970   -1.3906 H         1 <0>         0.0735
@<TRIPOS>BOND
     1    1    2 1
     2    1   34 1
     3    1   35 1
     4    1   36 1
     5    2    7 ar
     6    2    3 ar
     7    3    4 ar
     8    3   37 1
     9    4    5 ar
    10    4   38 1
    11    5    6 ar
    12    5    8 1
    13    6    7 ar
    14    6   39 1
    15    7   40 1
    16    8    9 1
    17    8   10 1
    18    8   17 1
    19   10   11 1
    20   10   41 1
    21   10   42 1
    22   11   16 1
    23   11   12 1
    24   12   13 1
    25   12   43 1
    26   12   44 1
    27   13   14 1
    28   13   45 1
    29   13   46 1
    30   14   15 1
    31   15   16 1
    32   15   47 1
    33   15   48 1
    34   16   49 1
    35   16   50 1
    36   17   18 am
    37   17   51 1
    38   18   19 2
    39   18   20 1
    40   20   21 1
    41   20   52 1
    42   20   53 1
    43   21   31 am
    44   21   22 1
    45   22   27 ar
    46   22   23 ar
    47   23   24 ar
    48   23   54 1
    49   24   25 ar
    50   24   55 1
    51   25   26 ar
    52   25   56 1
    53   26   27 ar
    54   26   57 1
    55   27   28 1
    56   28   29 1
    57   29   30 1
    58   29   31 1
    59   29   33 1
    60   31   32 2
    61   33   58 1
    62   33   59 1
    63   33   60 1
@<TRIPOS>MOLECULE
ZINC39862278
   44    46     0     0     0
SMALL
USER_CHARGES

@<TRIPOS>ATOM
      1 C1         -1.0254    2.0890    1.3159 C.ar      1 <0>        -0.1139
      2 C2          0.0948    2.8980    1.3516 C.ar      1 <0>        -0.1199
      3 C3          1.3481    2.3529    1.1441 C.ar      1 <0>        -0.1026
      4 C4          1.4811    0.9985    0.9012 C.ar      1 <0>        -0.0775
      5 C5          0.3609    0.1893    0.8664 C.ar      1 <0>        -0.0984
      6 C6         -0.8925    0.7347    1.0725 C.ar      1 <0>        -0.1188
      7 C7          2.8472    0.4044    0.6740 C.3       1 <0>        -0.0839
      8 C8          3.4314   -0.0312    1.9931 C.2       1 <0>         0.5268
      9 O1          2.8004    0.1255    3.0170 O.2       1 <0>        -0.4947
     10 N1          4.6549   -0.5948    2.0351 N.am      1 <0>        -0.5273
     11 N2          5.1980   -0.9997    3.2614 N.am      1 <0>        -0.3247
     12 C9          6.1506   -0.2712    3.8185 C.2       1 <0>         0.5446
     13 O2          6.5689    0.7440    3.2926 O.2       1 <0>        -0.4456
     14 C10         6.6808   -0.7496    5.1089 C.2       1 <0>        -0.2366
     15 C11         7.6509   -0.2121    5.9036 C.2       1 <0>         0.0850
     16 C12         8.0034   -0.8459    7.1116 C.2       1 <0>        -0.1430
     17 C13         8.9661   -0.3125    7.9003 C.2       1 <0>        -0.0403
     18 C14         9.3339   -0.9738    9.1607 C.ar      1 <0>        -0.0188
     19 C15         8.4947   -1.9468    9.7157 C.ar      1 <0>        -0.0965
     20 C16         8.8468   -2.5621   10.8978 C.ar      1 <0>        -0.0716
     21 C17        10.0266   -2.2197   11.5362 C.ar      1 <0>        -0.0998
     22 C18        10.8620   -1.2586   10.9941 C.ar      1 <0>        -0.0590
     23 C19        10.5275   -0.6381    9.8090 C.ar      1 <0>        -0.0248
     24 N3         11.4266    0.3858    9.2269 N.pl3     1 <0>         0.0259
     25 O3         11.5711    0.4523    8.0284 O.2       1 <0>        -0.1487
     26 O4         12.0156    1.1547    9.9504 O.3       1 <0>        -0.1414
     27 S1          5.7026   -2.2269    5.3460 S.3       1 <0>         0.0917
     28 C20         4.7335   -2.1207    3.8500 C.2       1 <0>         0.2685
     29 S2          3.5126   -3.1853    3.2959 S.2       1 <0>        -0.2841
     30 H1         -2.0041    2.5141    1.4825 H         1 <0>         0.1229
     31 H2         -0.0091    3.9562    1.5414 H         1 <0>         0.1233
     32 H3          2.2232    2.9851    1.1713 H         1 <0>         0.1199
     33 H4          0.4648   -0.8687    0.6763 H         1 <0>         0.1232
     34 H5         -1.7677    0.1025    1.0449 H         1 <0>         0.1242
     35 H6          2.7631   -0.4572    0.0116 H         1 <0>         0.1170
     36 H7          3.4970    1.1513    0.2178 H         1 <0>         0.1138
     37 H8          5.1595   -0.7200    1.2162 H         1 <0>         0.4316
     38 H9          8.1487    0.6993    5.6068 H         1 <0>         0.1627
     39 H10         7.5056   -1.7572    7.4085 H         1 <0>         0.1343
     40 H11         9.4639    0.5988    7.6034 H         1 <0>         0.1483
     41 H12         7.5736   -2.2144    9.2193 H         1 <0>         0.1520
     42 H13         8.2003   -3.3131   11.3274 H         1 <0>         0.1502
     43 H14        10.2964   -2.7050   12.4625 H         1 <0>         0.1524
     44 H15        11.7807   -0.9972   11.4982 H         1 <0>         0.1537
@<TRIPOS>BOND
     1    1    6 ar
     2    1    2 ar
     3    1   30 1
     4    2    3 ar
     5    2   31 1
     6    3    4 ar
     7    3   32 1
     8    4    5 ar
     9    4    7 1
    10    5    6 ar
    11    5   33 1
    12    6   34 1
    13    7    8 1
    14    7   35 1
    15    7   36 1
    16    8    9 2
    17    8   10 am
    18   10   11 1
    19   10   37 1
    20   11   28 1
    21   11   12 am
    22   12   13 2
    23   12   14 1
    24   14   15 2
    25   14   27 1
    26   15   16 1
    27   15   38 1
    28   16   17 2
    29   16   39 1
    30   17   18 1
    31   17   40 1
    32   18   23 ar
    33   18   19 ar
    34   19   20 ar
    35   19   41 1
    36   20   21 ar
    37   20   42 1
    38   21   22 ar
    39   21   43 1
    40   22   23 ar
    41   22   44 1
    42   23   24 1
    43   24   25 2
    44   24   26 1
    45   27   28 1
    46   28   29 2
@<TRIPOS>MOLECULE
ZINC60335809
   68    69     0     0     0
SMALL
USER_CHARGES

@<TRIPOS>ATOM
      1 C1          0.2129   -1.2301    0.8189 C.3       1 <0>        -0.1279
      2 C2          0.4444   -2.6773    0.3797 C.3       1 <0>        -0.0854
      3 C3          1.4832   -3.3282    1.2952 C.3       1 <0>        -0.1578
      4 C4         -0.8710   -3.4537    0.4681 C.3       1 <0>        -0.1557
      5 C5          0.9448   -2.6970   -1.0417 C.2       1 <0>         0.5255
      6 O1          1.1190   -1.6552   -1.6377 O.2       1 <0>        -0.5337
      7 N1          1.1986   -3.8723   -1.6505 N.am      1 <0>        -0.6098
      8 C6          1.0748   -5.1384   -0.9152 C.3       1 <0>         0.0774
      9 C7          0.1444   -6.0725   -1.6952 C.3       1 <0>        -0.1360
     10 C8          0.6641   -6.2252   -3.1265 C.3       1 <0>        -0.1133
     11 C9          0.6681   -4.8598   -3.8179 C.3       1 <0>        -0.1201
     12 H1         -0.3417   -4.4495   -3.8188 H         1 <0>         0.0958
     13 C10         1.5986   -3.9123   -3.0637 C.3       1 <0>         0.1328
     14 C11         1.1487   -5.0164   -5.2376 C.2       1 <0>         0.5118
     15 O2          2.2341   -4.5830   -5.5617 O.2       1 <0>        -0.5052
     16 N2          0.3723   -5.6379   -6.1472 N.am      1 <0>        -0.6111
     17 C12        -0.9816   -6.0863   -5.7944 C.3       1 <0>         0.1028
     18 C13        -1.1130   -7.5739   -6.1356 C.3       1 <0>        -0.1370
     19 C14        -0.7418   -7.7910   -7.6044 C.3       1 <0>        -0.1194
     20 C15         0.7116   -7.3696   -7.8326 C.3       1 <0>        -0.1268
     21 C16         0.8616   -5.8746   -7.5122 C.3       1 <0>         0.1345
     22 H2          0.2750   -5.2863   -8.2178 H         1 <0>         0.0819
     23 C17         2.3350   -5.4733   -7.6058 C.3       1 <0>         0.1531
     24 N3          2.4480   -4.0137   -7.5514 N.am      1 <0>        -0.6743
     25 C18         3.6497   -3.4245   -7.7099 C.2       1 <0>         0.6562
     26 O3          4.6395   -4.1039   -7.8980 O.2       1 <0>        -0.5764
     27 O4          3.7536   -2.0830   -7.6599 O.3       1 <0>        -0.3622
     28 C19         5.0578   -1.5263   -7.8360 C.3       1 <0>         0.1368
     29 C20         5.6038   -1.9300   -9.2071 C.3       1 <0>        -0.1846
     30 C21         4.9773   -0.0009   -7.7481 C.3       1 <0>        -0.1406
     31 C22         5.9888   -2.0518   -6.7415 C.3       1 <0>        -0.1832
     32 H3          1.1501   -0.6770    0.7559 H         1 <0>         0.0628
     33 H4         -0.5272   -0.7664    0.1667 H         1 <0>         0.0619
     34 H5         -0.1490   -1.2159    1.8470 H         1 <0>         0.0630
     35 H6          1.1532   -3.2519    2.3312 H         1 <0>         0.0710
     36 H7          1.5971   -4.3784    1.0265 H         1 <0>         0.0727
     37 H8          2.4395   -2.8179    1.1800 H         1 <0>         0.0624
     38 H9         -1.5909   -3.0297   -0.2319 H         1 <0>         0.0612
     39 H10        -0.6933   -4.4995    0.2176 H         1 <0>         0.0733
     40 H11        -1.2661   -3.3850    1.4817 H         1 <0>         0.0707
     41 H12         2.0569   -5.6006   -0.8155 H         1 <0>         0.0714
     42 H13         0.6565   -4.9476    0.0730 H         1 <0>         0.1166
     43 H14         0.1198   -7.0488   -1.2110 H         1 <0>         0.0833
     44 H15        -0.8605   -5.6508   -1.7161 H         1 <0>         0.0715
     45 H16         1.6784   -6.6238   -3.1040 H         1 <0>         0.0724
     46 H17         0.0176   -6.9089   -3.6766 H         1 <0>         0.0761
     47 H18         1.5257   -2.9129   -3.4925 H         1 <0>         0.0956
     48 H19         2.6244   -4.2723   -3.1431 H         1 <0>         0.0777
     49 H20        -1.1484   -5.9401   -4.7272 H         1 <0>         0.0905
     50 H21        -1.7155   -5.5148   -6.3627 H         1 <0>         0.0717
     51 H22        -0.4421   -8.1533   -5.5013 H         1 <0>         0.0694
     52 H23        -2.1409   -7.8961   -5.9687 H         1 <0>         0.0782
     53 H24        -0.8582   -8.8451   -7.8563 H         1 <0>         0.0711
     54 H25        -1.3972   -7.1922   -8.2368 H         1 <0>         0.0667
     55 H26         1.3653   -7.9509   -7.1824 H         1 <0>         0.0731
     56 H27         0.9824   -7.5463   -8.8736 H         1 <0>         0.0809
     57 H28         2.8846   -5.9116   -6.7727 H         1 <0>         0.0859
     58 H29         2.7511   -5.8351   -8.5460 H         1 <0>         0.0693
     59 H30         1.6580   -3.4714   -7.4012 H         1 <0>         0.3982
     60 H31         4.9405   -1.5556   -9.9869 H         1 <0>         0.0569
     61 H32         6.5986   -1.5053   -9.3415 H         1 <0>         0.0677
     62 H33         5.6611   -3.0167   -9.2697 H         1 <0>         0.0875
     63 H34         4.5884    0.2867   -6.7713 H         1 <0>         0.0659
     64 H35         5.9722    0.4237   -7.8825 H         1 <0>         0.0788
     65 H36         4.3141    0.3734   -8.5279 H         1 <0>         0.0647
     66 H37         6.0461   -3.1385   -6.8041 H         1 <0>         0.0876
     67 H38         6.9836   -1.6271   -6.8758 H         1 <0>         0.0662
     68 H39         5.5998   -1.7642   -5.7647 H         1 <0>         0.0579
@<TRIPOS>BOND
     1    1    2 1
     2    1   32 1
     3    1   33 1
     4    1   34 1
     5    2    3 1
     6    2    4 1
     7    2    5 1
     8    3   35 1
     9    3   36 1
    10    3   37 1
    11    4   38 1
    12    4   39 1
    13    4   40 1
    14    5    6 2
    15    5    7 am
    16    7   13 1
    17    7    8 1
    18    8    9 1
    19    8   41 1
    20    8   42 1
    21    9   10 1
    22    9   43 1
    23    9   44 1
    24   10   11 1
    25   10   45 1
    26   10   46 1
    27   11   12 1
    28   11   13 1
    29   11   14 1
    30   13   47 1
    31   13   48 1
    32   14   15 2
    33   14   16 am
    34   16   21 1
    35   16   17 1
    36   17   18 1
    37   17   49 1
    38   17   50 1
    39   18   19 1
    40   18   51 1
    41   18   52 1
    42   19   20 1
    43   19   53 1
    44   19   54 1
    45   20   21 1
    46   20   55 1
    47   20   56 1
    48   21   22 1
    49   21   23 1
    50   23   24 1
    51   23   57 1
    52   23   58 1
    53   24   25 am
    54   24   59 1
    55   25   26 2
    56   25   27 1
    57   27   28 1
    58   28   29 1
    59   28   30 1
    60   28   31 1
    61   29   60 1
    62   29   61 1
    63   29   62 1
    64   30   63 1
    65   30   64 1
    66   30   65 1
    67   31   66 1
    68   31   67 1
    69   31   68 1
@<TRIPOS>MOLECULE
ZINC00300523
   49    51     0     0     0
SMALL
USER_CHARGES
1-(3-methylcyclohexyl)-4-phenylsulfonyl-piperazine
@<TRIPOS>ATOM
      1 C1         -2.1642    1.0497    1.2777 C.3       1 <0>        -0.1613
      2 C2         -0.7288    1.5792    1.2668 C.3       1 <0>        -0.0859
      3 H1         -0.2017    1.2182    2.1499 H         1 <0>         0.0921
      4 C3         -0.0127    1.0858    0.0080 C.3       1 <0>        -0.1264
      5 C4         -0.7527    1.5927   -1.2315 C.3       1 <0>        -0.1193
      6 C5         -0.7734    3.1225   -1.2231 C.3       1 <0>        -0.1409
      7 C6         -1.4896    3.6159    0.0357 C.3       1 <0>         0.0256
      8 H2         -2.5122    3.2386    0.0434 H         1 <0>         0.1406
      9 C7         -0.7496    3.1091    1.2752 C.3       1 <0>        -0.1380
     10 C8         -2.0995    5.5964    1.2880 C.3       1 <0>        -0.0232
     11 C9         -1.9377    7.1194    1.3375 C.3       1 <0>         0.0959
     12 N1         -2.4986    7.6892    0.1030 N.pl3     1 <0>        -1.0115
     13 C10        -2.0566    7.1317   -1.1842 C.3       1 <0>         0.0962
     14 C11        -2.2136    5.6082   -1.1344 C.3       1 <0>        -0.0223
     15 S1         -3.5983    8.9260    0.1609 S.o2      1 <0>         2.6877
     16 O1         -3.3985    9.5894    1.4015 O.2       1 <0>        -0.9350
     17 O2         -3.5154    9.6019   -1.0864 O.2       1 <0>        -0.9350
     18 C12        -5.2003    8.1959    0.2325 C.ar      1 <0>        -0.6859
     19 C13        -5.8872    7.9207   -0.9351 C.ar      1 <0>        -0.0247
     20 C14        -7.1420    7.3434   -0.8790 C.ar      1 <0>        -0.1354
     21 C15        -7.7141    7.0506    0.3449 C.ar      1 <0>        -0.0548
     22 C16        -7.0295    7.3311    1.5126 C.ar      1 <0>        -0.1353
     23 C17        -5.7725    7.9035    1.4564 C.ar      1 <0>        -0.0248
     24 H3         -2.1494   -0.0402    1.2717 H         1 <0>         0.0692
     25 H4         -2.6744    1.4012    2.1745 H         1 <0>         0.0604
     26 H5         -2.6914    1.4107    0.3946 H         1 <0>         0.0561
     27 H6          0.0021   -0.0041    0.0020 H         1 <0>         0.0797
     28 H7          1.0099    1.4631    0.0003 H         1 <0>         0.0710
     29 H8         -0.2425    1.2411   -2.1283 H         1 <0>         0.0848
     30 H9         -1.7753    1.2154   -1.2238 H         1 <0>         0.0769
     31 H10         0.2491    3.4998   -1.2308 H         1 <0>         0.0875
     32 H11        -1.3006    3.4836   -2.1062 H         1 <0>         0.0872
     33 H12         0.2730    3.4864    1.2675 H         1 <0>         0.0881
     34 H13        -1.2598    3.4606    2.1720 H         1 <0>         0.0884
     35 H14        -3.1589    5.3419    1.3198 H         1 <0>         0.1355
     36 H15        -1.5916    5.1487    2.1423 H         1 <0>         0.1459
     37 H16        -0.8802    7.3732    1.4104 H         1 <0>         0.1049
     38 H17        -2.4705    7.5192    2.2004 H         1 <0>         0.1354
     39 H18        -1.0104    7.3866   -1.3537 H         1 <0>         0.1051
     40 H19        -2.6701    7.5369   -1.9888 H         1 <0>         0.1353
     41 H20        -1.7886    5.1690   -2.0370 H         1 <0>         0.1452
     42 H21        -3.2714    5.3535   -1.0689 H         1 <0>         0.1353
     43 H22        -5.4420    8.1532   -1.8912 H         1 <0>         0.1407
     44 H23        -7.6770    7.1246   -1.7914 H         1 <0>         0.1381
     45 H24        -8.6960    6.6030    0.3887 H         1 <0>         0.1370
     46 H25        -7.4766    7.1027    2.4688 H         1 <0>         0.1381
     47 H26        -5.2377    8.1227    2.3687 H         1 <0>         0.1405
     48 N2         -1.4803    5.0934    0.0425 N.4       1 <0>        -0.3906
     49 H27        -0.5082    5.4209   -0.0017 H         1 <0>         0.4261
@<TRIPOS>BOND
     1    1    2 1
     2    1   24 1
     3    1   25 1
     4    1   26 1
     5    2    3 1
     6    2    9 1
     7    2    4 1
     8    4    5 1
     9    4   27 1
    10    4   28 1
    11    5    6 1
    12    5   29 1
    13    5   30 1
    14    6    7 1
    15    6   31 1
    16    6   32 1
    17    7    8 1
    18    7    9 1
    19    7   48 1
    20    9   33 1
    21    9   34 1
    22   10   11 1
    23   10   35 1
    24   10   36 1
    25   10   48 1
    26   11   12 1
    27   11   37 1
    28   11   38 1
    29   12   13 1
    30   12   15 1
    31   13   14 1
    32   13   39 1
    33   13   40 1
    34   14   41 1
    35   14   42 1
    36   14   48 1
    37   15   16 2
    38   15   17 2
    39   15   18 1
    40   18   23 ar
    41   18   19 ar
    42   19   20 ar
    43   19   43 1
    44   20   21 ar
    45   20   44 1
    46   21   22 ar
    47   21   45 1
    48   22   23 ar
    49   22   46 1
    50   23   47 1
    51   48   49 1
@<TRIPOS>MOLECULE
ZINC35251760
   39    40     0     0     0
SMALL
USER_CHARGES

@<TRIPOS>ATOM
      1 C1         -0.8352   -3.1910    1.3925 C.3       1 <0>         0.0566
      2 N1         -0.3157   -2.0614    0.6177 N.pl3     1 <0>        -0.3979
      3 C2         -0.0421   -2.0726   -0.7104 C.2       1 <0>         0.0673
      4 C3          0.4195   -0.8512   -1.0728 C.2       1 <0>        -0.1776
      5 C4          0.4367   -0.0432    0.0689 C.2       1 <0>        -0.1280
      6 C5         -0.0297   -0.8104    1.1154 C.2       1 <0>        -0.0465
      7 C6         -0.1889   -0.3738    2.5066 C.2       1 <0>         0.5991
      8 O1         -0.1363   -1.1879    3.4096 O.2       1 <0>        -0.5230
      9 N2         -0.3934    0.9289    2.7848 N.am      1 <0>        -0.6113
     10 C7         -0.6183    1.8988    1.7043 C.3       1 <0>         0.0772
     11 C8          0.3815    3.0492    1.8584 C.3       1 <0>        -0.1616
     12 C9          0.2628    3.6378    3.2662 C.3       1 <0>         0.0244
     13 C10         0.6010    2.5621    4.3009 C.3       1 <0>        -0.1582
     14 C11        -0.4019    1.4052    4.1747 C.3       1 <0>         0.1196
     15 N3          1.1969    4.7628    3.4066 N.4       1 <0>        -0.3858
     16 C12         0.8715    5.7963    2.4146 C.3       1 <0>        -0.0528
     17 C13         1.0832    5.3280    4.7578 C.3       1 <0>        -0.0525
     18 Br1         0.9469   -0.3315   -2.8128 Br        1 <0>        -0.0150
     19 H1         -1.9203   -3.1153    1.4623 H         1 <0>         0.0841
     20 H2         -0.5671   -4.1246    0.8981 H         1 <0>         0.0969
     21 H3         -0.4046   -3.1734    2.3938 H         1 <0>         0.1068
     22 H4         -0.1706   -2.9171   -1.3712 H         1 <0>         0.1850
     23 H5          0.7521    0.9885    0.1202 H         1 <0>         0.1601
     24 H6         -0.4700    1.4126    0.7401 H         1 <0>         0.1368
     25 H7         -1.6348    2.2872    1.7676 H         1 <0>         0.0849
     26 H8          1.3936    2.6747    1.7049 H         1 <0>         0.0946
     27 H9          0.1633    3.8221    1.1214 H         1 <0>         0.1058
     28 H10        -0.7561    3.9897    3.4279 H         1 <0>         0.1406
     29 H11         1.6110    2.1922    4.1243 H         1 <0>         0.0935
     30 H12         0.5390    2.9882    5.3022 H         1 <0>         0.1037
     31 H13        -1.4011    1.7541    4.4353 H         1 <0>         0.0843
     32 H14        -0.1108    0.5932    4.8410 H         1 <0>         0.1142
     33 H15         1.5646    6.6310    2.5188 H         1 <0>         0.1261
     34 H16         0.9559    5.3769    1.4120 H         1 <0>         0.1257
     35 H17        -0.1475    6.1476    2.5769 H         1 <0>         0.1231
     36 H18         1.3246    4.5611    5.4939 H         1 <0>         0.1250
     37 H19         1.7763    6.1627    4.8620 H         1 <0>         0.1261
     38 H20         0.0642    5.6793    4.9201 H         1 <0>         0.1231
     39 H21         2.1402    4.4375    3.2564 H         1 <0>         0.4256
@<TRIPOS>BOND
     1    1    2 1
     2    1   19 1
     3    1   20 1
     4    1   21 1
     5    2    6 1
     6    2    3 1
     7    3    4 2
     8    3   22 1
     9    4    5 1
    10    4   18 1
    11    5    6 2
    12    5   23 1
    13    6    7 1
    14    7    8 2
    15    7    9 am
    16    9   14 1
    17    9   10 1
    18   10   11 1
    19   10   24 1
    20   10   25 1
    21   11   12 1
    22   11   26 1
    23   11   27 1
    24   12   13 1
    25   12   15 1
    26   12   28 1
    27   13   14 1
    28   13   29 1
    29   13   30 1
    30   14   31 1
    31   14   32 1
    32   15   16 1
    33   15   17 1
    34   15   39 1
    35   16   33 1
    36   16   34 1
    37   16   35 1
    38   17   36 1
    39   17   37 1
    40   17   38 1
@<TRIPOS>MOLECULE
ZINC43641775
   40    43     0     0     0
SMALL
USER_CHARGES

@<TRIPOS>ATOM
      1 C1         -0.0184    1.5028    0.0103 C.3       1 <0>        -0.0900
      2 C2          0.0021   -0.0041    0.0020 C.2       1 <0>         0.0490
      3 C3         -1.0783   -0.8055    0.0027 C.2       1 <0>        -0.2208
      4 C4         -0.6011   -2.1363   -0.0068 C.2       1 <0>        -0.1290
      5 C5          0.7423   -2.0686   -0.0126 C.2       1 <0>        -0.1134
      6 O1          1.1020   -0.7746   -0.0131 O.3       1 <0>        -0.1661
      7 C6          1.6840   -3.2450   -0.0226 C.3       1 <0>         0.0914
      8 N1          1.9837   -3.6206   -1.4108 N.4       1 <0>        -0.3917
      9 C7          0.7778   -4.1942   -2.0589 C.3       1 <0>        -0.0357
     10 C8          1.2091   -5.6349   -2.4805 C.3       1 <0>         0.1261
     11 H1          0.6008   -6.1222   -3.2425 H         1 <0>         0.1770
     12 C9          2.7149   -5.3599   -2.8421 C.3       1 <0>        -0.1432
     13 C10         3.0122   -4.7095   -1.4423 C.3       1 <0>         0.0074
     14 H2          4.0418   -4.4052   -1.2543 H         1 <0>         0.2033
     15 C11         2.4297   -5.7981   -0.5300 C.2       1 <0>         0.5022
     16 O2          2.8374   -6.1079    0.5695 O.2       1 <0>        -0.4408
     17 N2          1.3520   -6.3556   -1.1817 N.am      1 <0>        -0.5801
     18 C12         0.5454   -7.4081   -0.7313 C.ar      1 <0>         0.0885
     19 C13         0.8885   -8.7213   -1.0225 C.ar      1 <0>        -0.0744
     20 C14         0.0912   -9.7576   -0.5766 C.ar      1 <0>        -0.1137
     21 C15        -1.0484   -9.4890    0.1592 C.ar      1 <0>        -0.0668
     22 C16        -1.3947   -8.1828    0.4515 C.ar      1 <0>        -0.1412
     23 C17        -0.5979   -7.1405    0.0136 C.ar      1 <0>         0.1085
     24 F1         -0.9330   -5.8644    0.3039 F         1 <0>        -0.1389
     25 H3          1.0042    1.8801    0.0026 H         1 <0>         0.0843
     26 H4         -0.5455    1.8639   -0.8728 H         1 <0>         0.0991
     27 H5         -0.5286    1.8543    0.9071 H         1 <0>         0.0998
     28 H6         -2.1119   -0.4924    0.0097 H         1 <0>         0.1637
     29 H7         -1.2002   -3.0349   -0.0086 H         1 <0>         0.1585
     30 H8          2.6082   -2.9750    0.4883 H         1 <0>         0.1506
     31 H9          1.2186   -4.0873    0.4893 H         1 <0>         0.1481
     32 H10        -0.0505   -4.2366   -1.3518 H         1 <0>         0.1429
     33 H11         0.5016   -3.6080   -2.9353 H         1 <0>         0.1560
     34 H12         3.2806   -6.2769   -3.0069 H         1 <0>         0.1395
     35 H13         2.8261   -4.6535   -3.6647 H         1 <0>         0.1322
     36 H14         1.7778   -8.9326   -1.5976 H         1 <0>         0.1399
     37 H15         0.3583  -10.7792   -0.8032 H         1 <0>         0.1449
     38 H16        -1.6696  -10.3016    0.5060 H         1 <0>         0.1469
     39 H17        -2.2856   -7.9763    1.0261 H         1 <0>         0.1486
     40 H18         2.3099   -2.8175   -1.9272 H         1 <0>         0.4373
@<TRIPOS>BOND
     1    1    2 1
     2    1   25 1
     3    1   26 1
     4    1   27 1
     5    2    6 1
     6    2    3 2
     7    3    4 1
     8    3   28 1
     9    4    5 2
    10    4   29 1
    11    5    6 1
    12    5    7 1
    13    7    8 1
    14    7   30 1
    15    7   31 1
    16    8   13 1
    17    8    9 1
    18    8   40 1
    19    9   10 1
    20    9   32 1
    21    9   33 1
    22   10   11 1
    23   10   17 1
    24   10   12 1
    25   12   13 1
    26   12   34 1
    27   12   35 1
    28   13   14 1
    29   13   15 1
    30   15   16 2
    31   15   17 am
    32   17   18 1
    33   18   23 ar
    34   18   19 ar
    35   19   20 ar
    36   19   36 1
    37   20   21 ar
    38   20   37 1
    39   21   22 ar
    40   21   38 1
    41   22   23 ar
    42   22   39 1
    43   23   24 1
@<TRIPOS>MOLECULE
ZINC62130075
   49    51     0     0     0
SMALL
USER_CHARGES

@<TRIPOS>ATOM
      1 C1         -4.6791   -3.2074    0.9379 C.3       1 <0>        -0.1633
      2 C2         -3.9403   -2.8736   -0.3597 C.3       1 <0>        -0.0431
      3 C3         -4.9556   -2.5165   -1.4472 C.3       1 <0>        -0.1570
      4 C4         -3.0206   -1.7026   -0.1271 C.cat     1 <0>         0.3161
      5 N1         -3.2678   -0.6839    0.6502 N.pl3     1 <0>        -0.4748
      6 C5         -2.2284    0.1629    0.6135 C.2       1 <0>         0.0044
      7 C6         -1.3018   -0.3505   -0.2180 C.2       1 <0>         0.0242
      8 N2         -1.8016   -1.5365   -0.6840 N.pl3     1 <0>        -0.4019
      9 C7         -1.1391   -2.4531   -1.6152 C.3       1 <0>         0.0930
     10 C8         -0.4817   -3.5903   -0.8306 C.3       1 <0>        -0.1077
     11 C9          0.6462   -3.0260    0.0364 C.3       1 <0>        -0.1344
     12 C10         1.2792   -4.1618    0.8464 C.3       1 <0>         0.1113
     13 N3          1.7017   -5.2231   -0.0776 N.am      1 <0>        -0.6184
     14 C11         0.7168   -5.7738   -1.0186 C.3       1 <0>         0.1083
     15 C12         0.0901   -4.6200   -1.8077 C.3       1 <0>        -0.1306
     16 C13         2.9686   -5.6826   -0.0625 C.2       1 <0>         0.5272
     17 O1          3.7723   -5.2195    0.7188 O.2       1 <0>        -0.5289
     18 C14         3.3866   -6.7717   -1.0166 C.3       1 <0>        -0.1408
     19 C15         3.0261   -8.1862   -0.5328 C.3       1 <0>        -0.1228
     20 C16         4.3937   -8.6348   -1.0743 C.3       1 <0>        -0.1428
     21 C17         4.8612   -7.1836   -0.8734 C.3       1 <0>        -0.1195
     22 H1         -5.3443   -4.0543    0.7697 H         1 <0>         0.0977
     23 H2         -3.9558   -3.4617    1.7127 H         1 <0>         0.0730
     24 H3         -5.2635   -2.3439    1.2558 H         1 <0>         0.0660
     25 H4         -3.3560   -3.7370   -0.6775 H         1 <0>         0.1231
     26 H5         -5.5970   -1.7089   -1.0944 H         1 <0>         0.0707
     27 H6         -4.4281   -2.1956   -2.3454 H         1 <0>         0.0683
     28 H7         -5.5649   -3.3907   -1.6765 H         1 <0>         0.0947
     29 H8         -2.1485    1.0935    1.1558 H         1 <0>         0.2249
     30 H9         -0.3463    0.0874   -0.4663 H         1 <0>         0.2229
     31 H10        -1.8756   -2.8658   -2.3046 H         1 <0>         0.1203
     32 H11        -0.3780   -1.9123   -2.1776 H         1 <0>         0.1275
     33 H12        -1.2251   -4.0686   -0.1928 H         1 <0>         0.0877
     34 H13         1.4023   -2.5694   -0.6023 H         1 <0>         0.0791
     35 H14         0.2421   -2.2758    0.7161 H         1 <0>         0.0704
     36 H15         2.1454   -3.7843    1.3898 H         1 <0>         0.0994
     37 H16         0.5485   -4.5597    1.5505 H         1 <0>         0.0669
     38 H17         1.2119   -6.4600   -1.7058 H         1 <0>         0.0979
     39 H18        -0.0598   -6.3032   -0.4666 H         1 <0>         0.0740
     40 H19        -0.7099   -5.0043   -2.4406 H         1 <0>         0.0884
     41 H20         0.8514   -4.1483   -2.4290 H         1 <0>         0.0806
     42 H21         3.0871   -6.5711   -2.0453 H         1 <0>         0.1134
     43 H22         2.9374   -8.2678    0.5505 H         1 <0>         0.0850
     44 H23         2.1811   -8.6266   -1.0620 H         1 <0>         0.0758
     45 H24         4.9046   -9.3511   -0.4309 H         1 <0>         0.0764
     46 H25         4.3693   -8.9450   -2.1190 H         1 <0>         0.0862
     47 H26         5.4977   -6.8146   -1.6776 H         1 <0>         0.0744
     48 H27         5.2742   -6.9910    0.1168 H         1 <0>         0.0955
     49 H28        -4.0759   -0.5589    1.1720 H         1 <0>         0.4611
@<TRIPOS>BOND
     1    1    2 1
     2    1   22 1
     3    1   23 1
     4    1   24 1
     5    2    3 1
     6    2    4 1
     7    2   25 1
     8    3   26 1
     9    3   27 1
    10    3   28 1
    11    4    8 1
    12    4    5 2
    13    5    6 1
    14    5   49 1
    15    6    7 2
    16    6   29 1
    17    7    8 1
    18    7   30 1
    19    8    9 1
    20    9   10 1
    21    9   31 1
    22    9   32 1
    23   10   15 1
    24   10   11 1
    25   10   33 1
    26   11   12 1
    27   11   34 1
    28   11   35 1
    29   12   13 1
    30   12   36 1
    31   12   37 1
    32   13   14 1
    33   13   16 am
    34   14   15 1
    35   14   38 1
    36   14   39 1
    37   15   40 1
    38   15   41 1
    39   16   17 2
    40   16   18 1
    41   18   21 1
    42   18   19 1
    43   18   42 1
    44   19   20 1
    45   19   43 1
    46   19   44 1
    47   20   21 1
    48   20   45 1
    49   20   46 1
    50   21   47 1
    51   21   48 1
@<TRIPOS>MOLECULE
ZINC64670749
   35    38     0     0     0
SMALL
USER_CHARGES

@<TRIPOS>ATOM
      1 C1         -0.0163    1.3475    0.0095 C.ar      1 <0>        -0.1604
      2 C2          1.1655    2.1012    0.0022 C.ar      1 <0>         0.0640
      3 C3          2.3902    1.5338   -0.0088 C.ar      1 <0>        -0.2168
      4 C4          2.5295    0.1197   -0.0142 C.ar      1 <0>         0.3341
      5 N1          3.5918   -0.6532   -0.0468 N.pl3     1 <0>        -0.5942
      6 C5          3.1557   -2.0436    0.0476 C.3       1 <0>         0.0970
      7 H1          3.4750   -2.4799    0.9941 H         1 <0>         0.1882
      8 C6          3.6551   -2.8890   -1.1269 C.3       1 <0>         0.0043
      9 H2          4.7284   -3.0523   -1.0302 H         1 <0>         0.1443
     10 C7          2.9253   -4.2359   -1.1020 C.3       1 <0>        -0.1258
     11 C8          1.4298   -4.0575   -1.3568 C.3       1 <0>        -0.1365
     12 C9          0.7972   -3.2381   -0.2186 C.3       1 <0>        -0.0851
     13 C10         1.6393   -1.9971   -0.0330 C.2       1 <0>         0.0836
     14 C11         1.2939   -0.7023   -0.0146 C.ar      1 <0>        -0.1645
     15 C12         0.0021   -0.0041    0.0020 C.ar      1 <0>         0.0054
     16 C13         3.3662   -2.1761   -2.4228 C.2       1 <0>         0.2340
     17 N2          4.2808   -1.7959   -3.3220 N.2       1 <0>        -0.5183
     18 C14         3.6998   -1.2052   -4.3291 C.2       1 <0>         0.2946
     19 O1          2.3804   -1.1896   -4.1018 O.3       1 <0>        -0.0826
     20 N3          2.1853   -1.8349   -2.8522 N.2       1 <0>        -0.3190
     21 C15         4.3940   -0.6378   -5.5404 C.3       1 <0>         0.0271
     22 Cl1         4.5171   -1.9090   -6.8130 Cl        1 <0>        -0.1037
     23 H3         -0.9666    1.8603    0.0259 H         1 <0>         0.1591
     24 H4          1.0933    3.1788    0.0052 H         1 <0>         0.1618
     25 H5          3.2707    2.1592   -0.0139 H         1 <0>         0.1593
     26 H6          3.3443   -4.8837   -1.8721 H         1 <0>         0.1031
     27 H7          3.0687   -4.7022   -0.1273 H         1 <0>         0.1052
     28 H8          1.2836   -3.5360   -2.3027 H         1 <0>         0.0918
     29 H9          0.9520   -5.0359   -1.4071 H         1 <0>         0.1056
     30 H10        -0.2242   -2.9623   -0.4809 H         1 <0>         0.1135
     31 H11         0.8029   -3.8167    0.7051 H         1 <0>         0.1239
     32 H12        -0.9217   -0.5635    0.0083 H         1 <0>         0.1619
     33 H13         3.8221    0.2068   -5.9246 H         1 <0>         0.1415
     34 H14         5.3937   -0.3035   -5.2628 H         1 <0>         0.1499
     35 H15         4.5105   -0.3511   -0.1212 H         1 <0>         0.4537
@<TRIPOS>BOND
     1    1   15 ar
     2    1    2 ar
     3    1   23 1
     4    2    3 ar
     5    2   24 1
     6    3    4 ar
     7    3   25 1
     8    4   14 ar
     9    4    5 2
    10    5    6 1
    11    5   35 1
    12    6    7 1
    13    6   13 1
    14    6    8 1
    15    8    9 1
    16    8   10 1
    17    8   16 1
    18   10   11 1
    19   10   26 1
    20   10   27 1
    21   11   12 1
    22   11   28 1
    23   11   29 1
    24   12   13 1
    25   12   30 1
    26   12   31 1
    27   13   14 2
    28   14   15 ar
    29   15   32 1
    30   16   20 2
    31   16   17 1
    32   17   18 2
    33   18   19 1
    34   18   21 1
    35   19   20 1
    36   21   22 1
    37   21   33 1
    38   21   34 1
@<TRIPOS>MOLECULE
ZINC00714589
   51    53     0     0     0
SMALL
USER_CHARGES
2-amino-4-(4-ethoxy-3-methoxy-phenyl)-7,7-dimethyl-5-oxo-6,8-dihydro-4H-chromene-3-carbonitrile
@<TRIPOS>ATOM
      1 C1          1.8619    5.6015    7.5766 C.3       1 <0>        -0.1521
      2 C2          1.3941    5.0116    6.2447 C.3       1 <0>         0.0539
      3 O1          2.3000    5.3965    5.2088 O.3       1 <0>        -0.3053
      4 C3          2.0268    4.9519    3.9530 C.ar      1 <0>         0.1018
      5 C4          0.9114    4.1625    3.7232 C.ar      1 <0>        -0.1729
      6 C5          0.6349    3.7117    2.4459 C.ar      1 <0>        -0.1031
      7 C6          1.4694    4.0463    1.3957 C.ar      1 <0>        -0.0700
      8 C7          2.5867    4.8291    1.6190 C.ar      1 <0>        -0.1509
      9 C8          2.8665    5.2890    2.8958 C.ar      1 <0>         0.1007
     10 O2          3.9625    6.0634    3.1163 O.3       1 <0>        -0.3062
     11 C9          4.7790    6.3694    1.9842 C.3       1 <0>         0.0254
     12 C10         1.1638    3.5513    0.0055 C.3       1 <0>         0.0965
     13 H1          1.9308    3.9103   -0.6807 H         1 <0>         0.0980
     14 C11         1.1560    2.0481    0.0020 C.2       1 <0>        -0.2589
     15 C12        -0.0165    1.3685    0.0096 C.2       1 <0>         0.4244
     16 O3         -1.1956    2.0097    0.0187 O.3       1 <0>        -0.2381
     17 C13        -1.2692    3.2847   -0.4022 C.2       1 <0>         0.1689
     18 C14        -0.1827    4.0780   -0.4287 C.2       1 <0>        -0.2603
     19 C15        -0.2643    5.4169   -0.8572 C.2       1 <0>         0.4048
     20 O4          0.7414    6.0976   -0.8818 O.2       1 <0>        -0.4485
     21 C16        -1.5749    6.0198   -1.2847 C.3       1 <0>        -0.1515
     22 C17        -2.7130    5.3024   -0.5510 C.3       1 <0>        -0.0551
     23 C18        -2.6149    3.8053   -0.8500 C.3       1 <0>        -0.0720
     24 C19        -2.5812    5.5356    0.9554 C.3       1 <0>        -0.1571
     25 C20        -4.0594    5.8413   -1.0388 C.3       1 <0>        -0.1418
     26 N1          0.0021   -0.0041    0.0020 N.pl3     1 <0>        -0.8296
     27 C21         2.3948    1.3299   -0.0098 C.1       1 <0>         0.2715
     28 N2          3.3775    0.7602   -0.0192 N.1       1 <0>        -0.4379
     29 H2          2.8593    5.2283    7.8089 H         1 <0>         0.0664
     30 H3          1.8888    6.6887    7.5030 H         1 <0>         0.0667
     31 H4          1.1709    5.3079    8.3668 H         1 <0>         0.0778
     32 H5          0.3967    5.3848    6.0124 H         1 <0>         0.0604
     33 H6          1.3671    3.9244    6.3183 H         1 <0>         0.0599
     34 H7          0.2582    3.8992    4.5420 H         1 <0>         0.1333
     35 H8         -0.2348    3.0965    2.2681 H         1 <0>         0.1180
     36 H9          3.2393    5.0855    0.7975 H         1 <0>         0.1352
     37 H10         5.6169    6.9919    2.2981 H         1 <0>         0.1004
     38 H11         5.1568    5.4447    1.5481 H         1 <0>         0.0536
     39 H12         4.1862    6.9051    1.2428 H         1 <0>         0.0574
     40 H13        -1.5842    6.9933   -1.0564 H         1 <0>         0.0923
     41 H14        -1.6995    5.8972   -2.3606 H         1 <0>         0.1055
     42 H15        -3.4045    3.2763   -0.3164 H         1 <0>         0.1036
     43 H16        -2.7291    3.6411   -1.9215 H         1 <0>         0.1092
     44 H17        -2.6334    6.6043    1.1636 H         1 <0>         0.0650
     45 H18        -3.3919    5.0243    1.4745 H         1 <0>         0.0652
     46 H19        -1.6245    5.1443    1.3013 H         1 <0>         0.0629
     47 H20        -4.1535    5.6674   -2.1107 H         1 <0>         0.0628
     48 H21        -4.8668    5.3293   -0.5153 H         1 <0>         0.0651
     49 H22        -4.1169    6.9111   -0.8378 H         1 <0>         0.0668
     50 H23         0.8486   -0.4776   -0.0086 H         1 <0>         0.4265
     51 H24        -0.8313   -0.5005    0.0073 H         1 <0>         0.4118
@<TRIPOS>BOND
     1    1    2 1
     2    1   29 1
     3    1   30 1
     4    1   31 1
     5    2    3 1
     6    2   32 1
     7    2   33 1
     8    3    4 1
     9    4    9 ar
    10    4    5 ar
    11    5    6 ar
    12    5   34 1
    13    6    7 ar
    14    6   35 1
    15    7    8 ar
    16    7   12 1
    17    8    9 ar
    18    8   36 1
    19    9   10 1
    20   10   11 1
    21   11   37 1
    22   11   38 1
    23   11   39 1
    24   12   13 1
    25   12   18 1
    26   12   14 1
    27   14   15 2
    28   14   27 1
    29   15   16 1
    30   15   26 1
    31   16   17 1
    32   17   23 1
    33   17   18 2
    34   18   19 1
    35   19   20 2
    36   19   21 1
    37   21   22 1
    38   21   40 1
    39   21   41 1
    40   22   23 1
    41   22   24 1
    42   22   25 1
    43   23   42 1
    44   23   43 1
    45   24   44 1
    46   24   45 1
    47   24   46 1
    48   25   47 1
    49   25   48 1
    50   25   49 1
    51   26   50 1
    52   26   51 1
    53   27   28 3
@<TRIPOS>MOLECULE
ZINC14472475
   48    51     0     0     0
SMALL
USER_CHARGES
(3aS,4R,9bS)-N-ethyl-4-(3-nitrophenyl)-3a,4,5,9b-tetrahydro-3H-cyclopenta[c]quinoline-8-carboxamide
@<TRIPOS>ATOM
      1 C1          2.5525   -5.2481    0.2842 C.3       1 <0>        -0.1663
      2 C2          1.1896   -4.5537    0.3201 C.3       1 <0>         0.1139
      3 N1          1.3790   -3.1025    0.2539 N.am      1 <0>        -0.7308
      4 C3          0.3100   -2.2819    0.2711 C.2       1 <0>         0.5637
      5 O1         -0.8117   -2.7461    0.3416 O.2       1 <0>        -0.5425
      6 C4          0.5007   -0.8206    0.2044 C.ar      1 <0>        -0.1870
      7 C5          1.7889   -0.2832    0.1228 C.ar      1 <0>        -0.0360
      8 C6          1.9631    1.0791    0.0681 C.ar      1 <0>        -0.1971
      9 C7          0.8637    1.9347    0.0924 C.ar      1 <0>         0.2380
     10 C8         -0.4290    1.3938    0.1589 C.ar      1 <0>        -0.1489
     11 C9         -0.6054    0.0334    0.2221 C.ar      1 <0>        -0.0030
     12 C10        -1.5657    2.3396    0.1359 C.3       1 <0>        -0.0348
     13 H1         -1.7450    2.6276   -0.9000 H         1 <0>         0.0862
     14 C11        -2.8826    2.0019    0.7338 C.2       1 <0>        -0.1466
     15 C12        -3.4448    3.1194    1.1785 C.2       1 <0>        -0.1680
     16 C13        -2.5110    4.3070    0.9363 C.3       1 <0>        -0.0914
     17 C14        -1.1387    3.6205    0.9131 C.3       1 <0>        -0.1039
     18 H2         -0.7817    3.4055    1.9203 H         1 <0>         0.1054
     19 C15        -0.0556    4.2651    0.0671 C.3       1 <0>         0.2052
     20 H3          0.2505    5.2142    0.5070 H         1 <0>         0.1139
     21 N2          1.0755    3.3126    0.0706 N.pl3     1 <0>        -0.7383
     22 C16        -0.5521    4.4778   -1.3398 C.ar      1 <0>        -0.1013
     23 C17        -1.1861    5.6590   -1.6779 C.ar      1 <0>        -0.0606
     24 C18        -1.6411    5.8542   -2.9683 C.ar      1 <0>        -0.1135
     25 C19        -1.4622    4.8684   -3.9210 C.ar      1 <0>        -0.0544
     26 C20        -0.8283    3.6876   -3.5830 C.ar      1 <0>        -0.0434
     27 C21        -0.3685    3.4944   -2.2935 C.ar      1 <0>        -0.0405
     28 N3         -0.6364    2.6323   -4.6031 N.pl3     1 <0>         0.0257
     29 O2         -1.0370    2.8045   -5.7403 O.2       1 <0>        -0.1566
     30 O3         -0.0778    1.5918   -4.3052 O.3       1 <0>        -0.1533
     31 H4          3.0672   -4.9907   -0.6415 H         1 <0>         0.0624
     32 H5          3.1497   -4.9204    1.1351 H         1 <0>         0.0615
     33 H6          2.4116   -6.3278    0.3335 H         1 <0>         0.0753
     34 H7          0.6750   -4.8111    1.2459 H         1 <0>         0.0679
     35 H8          0.5924   -4.8814   -0.5308 H         1 <0>         0.0687
     36 H9          2.2738   -2.7323    0.1977 H         1 <0>         0.3987
     37 H10         2.6471   -0.9386    0.1024 H         1 <0>         0.1259
     38 H11         2.9601    1.4896    0.0055 H         1 <0>         0.1285
     39 H12        -1.6021   -0.3778    0.2852 H         1 <0>         0.1350
     40 H13        -3.3115    1.0127    0.7961 H         1 <0>         0.1339
     41 H14        -4.4178    3.1810    1.6432 H         1 <0>         0.1323
     42 H15        -2.5742    5.0265    1.7526 H         1 <0>         0.0786
     43 H16        -2.7255    4.7838   -0.0201 H         1 <0>         0.0813
     44 H17         1.9836    3.6534    0.0578 H         1 <0>         0.4068
     45 H18        -1.3256    6.4292   -0.9338 H         1 <0>         0.1468
     46 H19        -2.1361    6.7770   -3.2326 H         1 <0>         0.1515
     47 H20        -1.8174    5.0211   -4.9294 H         1 <0>         0.1551
     48 H21         0.1307    2.5735   -2.0305 H         1 <0>         0.1559
@<TRIPOS>BOND
     1    1    2 1
     2    1   31 1
     3    1   32 1
     4    1   33 1
     5    2    3 1
     6    2   34 1
     7    2   35 1
     8    3    4 am
     9    3   36 1
    10    4    5 2
    11    4    6 1
    12    6   11 ar
    13    6    7 ar
    14    7    8 ar
    15    7   37 1
    16    8    9 ar
    17    8   38 1
    18    9   21 1
    19    9   10 ar
    20   10   11 ar
    21   10   12 1
    22   11   39 1
    23   12   13 1
    24   12   17 1
    25   12   14 1
    26   14   15 2
    27   14   40 1
    28   15   16 1
    29   15   41 1
    30   16   17 1
    31   16   42 1
    32   16   43 1
    33   17   18 1
    34   17   19 1
    35   19   20 1
    36   19   21 1
    37   19   22 1
    38   21   44 1
    39   22   27 ar
    40   22   23 ar
    41   23   24 ar
    42   23   45 1
    43   24   25 ar
    44   24   46 1
    45   25   26 ar
    46   25   47 1
    47   26   27 ar
    48   26   28 1
    49   27   48 1
    50   28   29 2
    51   28   30 1
@<TRIPOS>MOLECULE
ZINC38519669
   50    53     0     0     0
SMALL
USER_CHARGES

@<TRIPOS>ATOM
      1 C1         -0.0184    1.5028    0.0103 C.3       1 <0>        -0.1175
      2 C2          0.0021   -0.0041    0.0020 C.ar      1 <0>        -0.0849
      3 C3          0.0057   -0.6877   -1.2009 C.ar      1 <0>        -0.0926
      4 C4          0.0244   -2.0711   -1.2174 C.ar      1 <0>        -0.0869
      5 C5          0.0396   -2.7780   -0.0328 C.ar      1 <0>        -0.0629
      6 C6          0.0361   -2.0945    1.1843 C.ar      1 <0>        -0.1270
      7 C7          0.0228   -0.6987    1.1938 C.ar      1 <0>        -0.0928
      8 C8          0.0518   -2.8454    2.4574 C.2       1 <0>         0.5524
      9 O1          0.0678   -4.0609    2.4460 O.2       1 <0>        -0.4841
     10 N1          0.0483   -2.1824    3.6309 N.am      1 <0>        -0.6328
     11 C9          0.0632   -2.8939    4.8373 C.2       1 <0>         0.3406
     12 C10         0.0560   -2.3388    6.1139 C.2       1 <0>        -0.2937
     13 C11         0.0682   -3.3646    7.0202 C.2       1 <0>         0.3372
     14 N2          0.0935   -4.5208    6.3299 N.pl3     1 <0>        -0.3678
     15 N3          0.0806   -4.2044    4.9617 N.2       1 <0>        -0.2632
     16 C12         0.1238   -5.8683    6.9040 C.3       1 <0>         0.0989
     17 N4          0.0437   -3.1333    8.3953 N.am      1 <0>        -0.6464
     18 C13        -0.1946   -1.8758    8.8244 C.2       1 <0>         0.5387
     19 O2         -0.0344   -1.6155    9.9981 O.2       1 <0>        -0.5102
     20 C14        -0.6517   -0.7883    7.8938 C.3       1 <0>        -0.1298
     21 C15         0.0458   -0.8908    6.5337 C.3       1 <0>         0.0413
     22 H1          1.0693   -0.5254    6.6173 H         1 <0>         0.0940
     23 C16        -0.7048   -0.0722    5.5151 C.ar      1 <0>        -0.0879
     24 C17        -2.0344   -0.3450    5.2530 C.ar      1 <0>        -0.1024
     25 C18        -2.7229    0.4060    4.3187 C.ar      1 <0>        -0.1142
     26 C19        -2.0820    1.4301    3.6469 C.ar      1 <0>        -0.1148
     27 C20        -0.7527    1.7035    3.9097 C.ar      1 <0>        -0.1209
     28 C21        -0.0653    0.9553    4.8471 C.ar      1 <0>        -0.1222
     29 C22         0.0277   -2.8073   -2.5323 C.3       1 <0>        -0.1169
     30 H2          1.0042    1.8801    0.0026 H         1 <0>         0.0739
     31 H3         -0.5455    1.8639   -0.8728 H         1 <0>         0.0699
     32 H4         -0.5286    1.8543    0.9071 H         1 <0>         0.0697
     33 H5         -0.0065   -0.1391   -2.1311 H         1 <0>         0.1288
     34 H6          0.0539   -3.8578   -0.0470 H         1 <0>         0.1372
     35 H7          0.0245   -0.1638    2.1320 H         1 <0>         0.1227
     36 H8          0.0355   -1.2125    3.6399 H         1 <0>         0.4192
     37 H9         -0.8961   -6.2253    7.0470 H         1 <0>         0.0807
     38 H10         0.6523   -6.5397    6.2272 H         1 <0>         0.1002
     39 H11         0.6378   -5.8423    7.8648 H         1 <0>         0.0848
     40 H12         0.1933   -3.8555    9.0254 H         1 <0>         0.4150
     41 H13        -1.7290   -0.8711    7.7498 H         1 <0>         0.1097
     42 H14        -0.4256    0.1807    8.3388 H         1 <0>         0.1161
     43 H15        -2.5351   -1.1451    5.7779 H         1 <0>         0.1219
     44 H16        -3.7615    0.1923    4.1134 H         1 <0>         0.1242
     45 H17        -2.6197    2.0163    2.9165 H         1 <0>         0.1247
     46 H18        -0.2519    2.5034    3.3846 H         1 <0>         0.1274
     47 H19         0.9722    1.1713    5.0551 H         1 <0>         0.1286
     48 H20         1.0561   -2.9709   -2.8546 H         1 <0>         0.0743
     49 H21        -0.4725   -3.7683   -2.4120 H         1 <0>         0.0703
     50 H22        -0.4980   -2.2154   -3.2815 H         1 <0>         0.0697
@<TRIPOS>BOND
     1    1    2 1
     2    1   30 1
     3    1   31 1
     4    1   32 1
     5    2    7 ar
     6    2    3 ar
     7    3    4 ar
     8    3   33 1
     9    4    5 ar
    10    4   29 1
    11    5    6 ar
    12    5   34 1
    13    6    7 ar
    14    6    8 1
    15    7   35 1
    16    8    9 2
    17    8   10 am
    18   10   11 1
    19   10   36 1
    20   11   15 2
    21   11   12 1
    22   12   21 1
    23   12   13 2
    24   13   14 1
    25   13   17 1
    26   14   15 1
    27   14   16 1
    28   16   37 1
    29   16   38 1
    30   16   39 1
    31   17   18 am
    32   17   40 1
    33   18   19 2
    34   18   20 1
    35   20   21 1
    36   20   41 1
    37   20   42 1
    38   21   22 1
    39   21   23 1
    40   23   28 ar
    41   23   24 ar
    42   24   25 ar
    43   24   43 1
    44   25   26 ar
    45   25   44 1
    46   26   27 ar
    47   26   45 1
    48   27   28 ar
    49   27   46 1
    50   28   47 1
    51   29   48 1
    52   29   49 1
    53   29   50 1
@<TRIPOS>MOLECULE
ZINC08284568
   39    41     0     0     0
SMALL
USER_CHARGES

@<TRIPOS>ATOM
      1 C1         -1.6007    1.3836    0.6724 C.3       1 <0>        -0.1143
      2 C2         -1.4279   -0.1117    0.6000 C.2       1 <0>        -0.0976
      3 C3         -2.0850   -0.8266   -0.3254 C.2       1 <0>        -0.1340
      4 S1         -1.5607   -2.5010   -0.0081 S.3       1 <0>         0.1138
      5 C4         -0.4733   -2.1953    1.3588 C.ar      1 <0>         0.1441
      6 C5         -0.5435   -0.7945    1.5274 C.ar      1 <0>        -0.2216
      7 C6          0.2555   -0.2665    2.5791 C.ar      1 <0>         0.4980
      8 N1          0.9932   -1.0917    3.3056 N.ar      1 <0>        -0.5457
      9 C7          1.0135   -2.3938    3.0874 C.ar      1 <0>         0.3544
     10 N2          0.2865   -2.9436    2.1335 N.ar      1 <0>        -0.5057
     11 N3          0.2621    1.0917    2.8392 N.pl3     1 <0>        -0.5623
     12 N4          0.4879    1.5543    4.1421 N.2       1 <0>        -0.2047
     13 C8          0.4941    2.8294    4.3863 C.2       1 <0>         0.0945
     14 C9          0.7317    3.3162    5.7574 C.ar      1 <0>        -0.0056
     15 C10         0.7329    4.6882    6.0232 C.ar      1 <0>        -0.1670
     16 C11         0.9557    5.1397    7.3105 C.ar      1 <0>         0.1153
     17 C12         1.1789    4.2282    8.3400 C.ar      1 <0>         0.0994
     18 C13         1.1783    2.8656    8.0771 C.ar      1 <0>        -0.0304
     19 C14         0.9504    2.4071    6.7951 C.ar      1 <0>        -0.0942
     20 Cl1         1.4582    1.7350    9.3644 Cl        1 <0>        -0.0385
     21 O1          1.3983    4.6747    9.6055 O.3       1 <0>        -0.4727
     22 O2          0.9575    6.4743    7.5720 O.3       1 <0>        -0.3008
     23 C15         0.7224    7.3518    6.4690 C.3       1 <0>         0.0222
     24 C16        -3.0396   -0.3324   -1.3816 C.3       1 <0>        -0.0732
     25 H1         -0.7849    1.8700    0.1377 H         1 <0>         0.0747
     26 H2         -2.5509    1.6621    0.2166 H         1 <0>         0.0822
     27 H3         -1.5914    1.7004    1.7153 H         1 <0>         0.0665
     28 H4          1.6327   -3.0238    3.7089 H         1 <0>         0.2130
     29 H5          0.1103    1.7240    2.1194 H         1 <0>         0.4025
     30 H6          0.3251    3.5334    3.5849 H         1 <0>         0.1246
     31 H7          0.5605    5.3943    5.2243 H         1 <0>         0.1446
     32 H8          0.9456    1.3460    6.5937 H         1 <0>         0.1524
     33 H9          0.5937    4.7734   10.1327 H         1 <0>         0.3924
     34 H10         1.4933    7.2004    5.7135 H         1 <0>         0.0591
     35 H11        -0.2558    7.1392    6.0377 H         1 <0>         0.0586
     36 H12         0.7503    8.3852    6.8145 H         1 <0>         0.1058
     37 H13        -2.4849   -0.0907   -2.2883 H         1 <0>         0.0850
     38 H14        -3.7729   -1.1085   -1.6005 H         1 <0>         0.0797
     39 H15        -3.5513    0.5595   -1.0201 H         1 <0>         0.0852
@<TRIPOS>BOND
     1    1    2 1
     2    1   25 1
     3    1   26 1
     4    1   27 1
     5    2    6 1
     6    2    3 2
     7    3    4 1
     8    3   24 1
     9    4    5 1
    10    5   10 ar
    11    5    6 ar
    12    6    7 ar
    13    7    8 ar
    14    7   11 1
    15    8    9 ar
    16    9   10 ar
    17    9   28 1
    18   11   12 1
    19   11   29 1
    20   12   13 2
    21   13   14 1
    22   13   30 1
    23   14   19 ar
    24   14   15 ar
    25   15   16 ar
    26   15   31 1
    27   16   17 ar
    28   16   22 1
    29   17   18 ar
    30   17   21 1
    31   18   19 ar
    32   18   20 1
    33   19   32 1
    34   21   33 1
    35   22   23 1
    36   23   34 1
    37   23   35 1
    38   23   36 1
    39   24   37 1
    40   24   38 1
    41   24   39 1
@<TRIPOS>MOLECULE
ZINC65502553
   46    49     0     0     0
SMALL
USER_CHARGES

@<TRIPOS>ATOM
      1 C1         -0.0173    1.4248    0.0099 C.3       1 <0>         0.0240
      2 O1          0.0021   -0.0041    0.0020 O.3       1 <0>        -0.3075
      3 C2         -1.2011   -0.6379    0.0101 C.ar      1 <0>         0.1052
      4 C3         -2.3710    0.0993    0.0195 C.ar      1 <0>        -0.1848
      5 C4         -3.6041   -0.5543    0.0278 C.ar      1 <0>        -0.0242
      6 C5         -3.6513   -1.9491    0.0266 C.ar      1 <0>        -0.1336
      7 C6         -2.4807   -2.6789    0.0172 C.ar      1 <0>        -0.1033
      8 C7         -1.2552   -2.0296    0.0031 C.ar      1 <0>         0.0753
      9 O2         -0.1043   -2.7532   -0.0118 O.3       1 <0>        -0.4861
     10 C8         -4.8571    0.2289    0.0384 C.2       1 <0>        -0.1163
     11 C9         -6.0279   -0.3934    0.0463 C.2       1 <0>        -0.1289
     12 C10        -7.3058    0.4053    0.0571 C.3       1 <0>         0.0255
     13 H1         -7.0734    1.4702    0.0569 H         1 <0>         0.1020
     14 C11        -8.1413    0.0591   -1.1785 C.3       1 <0>        -0.1299
     15 C12        -8.8075   -1.2781   -1.0451 C.2       1 <0>         0.5352
     16 O3         -8.8944   -1.9837   -2.0279 O.2       1 <0>        -0.5177
     17 N1         -9.3141   -1.7303    0.1214 N.am      1 <0>        -0.6327
     18 C13        -9.0716   -0.9737    1.2794 C.2       1 <0>         0.3127
     19 C14        -8.1098    0.0610    1.2846 C.2       1 <0>        -0.2425
     20 C15        -8.0892    0.6073    2.5223 C.2       1 <0>         0.1751
     21 N2         -9.0127   -0.0615    3.2763 N.pl3     1 <0>        -0.4704
     22 H2         -9.2216    0.1107    4.2078 H         1 <0>         0.4467
     23 N3         -9.6075   -1.0426    2.4622 N.2       1 <0>        -0.2872
     24 C16        -7.2276    1.7219    2.9752 C.ar      1 <0>        -0.0469
     25 C17        -5.8723    1.7384    2.6448 C.ar      1 <0>        -0.0939
     26 C18        -5.0743    2.7807    3.0697 C.ar      1 <0>        -0.1177
     27 C19        -5.6154    3.8077    3.8223 C.ar      1 <0>        -0.1032
     28 C20        -6.9587    3.7971    4.1533 C.ar      1 <0>        -0.1176
     29 C21        -7.7684    2.7634    3.7295 C.ar      1 <0>        -0.0990
     30 H3          1.0053    1.8021    0.0021 H         1 <0>         0.1022
     31 H4         -0.5445    1.7859   -0.8732 H         1 <0>         0.0569
     32 H5         -0.5275    1.7763    0.9067 H         1 <0>         0.0559
     33 H6         -2.3305    1.1786    0.0208 H         1 <0>         0.1353
     34 H7         -4.6043   -2.4571    0.0334 H         1 <0>         0.1301
     35 H8         -2.5187   -3.7583    0.0163 H         1 <0>         0.1377
     36 H9          0.2371   -2.9672    0.8673 H         1 <0>         0.3872
     37 H10        -4.8193    1.3083    0.0397 H         1 <0>         0.1253
     38 H11        -6.0658   -1.4728    0.0450 H         1 <0>         0.1178
     39 H12        -8.9054    0.8242   -1.3161 H         1 <0>         0.1108
     40 H13        -7.4920    0.0465   -2.0539 H         1 <0>         0.1158
     41 H14        -9.8294   -2.5513    0.1587 H         1 <0>         0.4196
     42 H15        -5.4486    0.9369    2.0579 H         1 <0>         0.1387
     43 H16        -4.0250    2.7947    2.8146 H         1 <0>         0.1282
     44 H17        -4.9865    4.6210    4.1532 H         1 <0>         0.1270
     45 H18        -7.3752    4.6017    4.7410 H         1 <0>         0.1288
     46 H19        -8.8178    2.7584    3.9847 H         1 <0>         0.1243
@<TRIPOS>BOND
     1    1    2 1
     2    1   30 1
     3    1   31 1
     4    1   32 1
     5    2    3 1
     6    3    8 ar
     7    3    4 ar
     8    4    5 ar
     9    4   33 1
    10    5    6 ar
    11    5   10 1
    12    6    7 ar
    13    6   34 1
    14    7    8 ar
    15    7   35 1
    16    8    9 1
    17    9   36 1
    18   10   11 2
    19   10   37 1
    20   11   12 1
    21   11   38 1
    22   12   13 1
    23   12   19 1
    24   12   14 1
    25   14   15 1
    26   14   39 1
    27   14   40 1
    28   15   16 2
    29   15   17 am
    30   17   18 1
    31   17   41 1
    32   18   23 2
    33   18   19 1
    34   19   20 2
    35   20   21 1
    36   20   24 1
    37   21   22 1
    38   21   23 1
    39   24   29 ar
    40   24   25 ar
    41   25   26 ar
    42   25   42 1
    43   26   27 ar
    44   26   43 1
    45   27   28 ar
    46   27   44 1
    47   28   29 ar
    48   28   45 1
    49   29   46 1
@<TRIPOS>MOLECULE
ZINC03572811
   46    48     0     0     0
SMALL
USER_CHARGES
2-(allyl-methyl-oxo-BLAHyl)sulfanyl-N-carbamoyl-acetamide
@<TRIPOS>ATOM
      1 C1          3.8662   -1.5922    8.7979 C.3       1 <0>        -0.1473
      2 C2          3.6592   -1.7735    7.2928 C.3       1 <0>        -0.0871
      3 H1          4.6245   -1.9078    6.8047 H         1 <0>         0.0769
      4 C3          2.9587   -0.5401    6.7153 C.3       1 <0>        -0.1176
      5 C4          2.9723   -0.6033    5.1875 C.3       1 <0>        -0.0592
      6 C5          2.4055   -1.9497    4.7456 C.2       1 <0>        -0.0455
      7 C6          2.3404   -2.9859    5.6058 C.2       1 <0>        -0.1694
      8 S1          1.6279   -4.3144    4.6734 S.3       1 <0>         0.1415
      9 C7          1.4181   -3.4712    3.1256 C.2       1 <0>         0.1154
     10 C8          1.9111   -2.1818    3.3871 C.2       1 <0>        -0.2484
     11 C9          1.8705   -1.2641    2.2899 C.2       1 <0>         0.5597
     12 O1          2.2819   -0.1242    2.4220 O.2       1 <0>        -0.5119
     13 N1          1.3674   -1.6756    1.1115 N.am      1 <0>        -0.5061
     14 C10         0.9082   -2.9499    0.9439 C.2       1 <0>         0.3574
     15 N2          0.9392   -3.8164    1.9363 N.2       1 <0>        -0.5027
     16 S2          0.2647   -3.4430   -0.6206 S.3       1 <0>         0.1133
     17 C11        -0.1704   -5.1613   -0.2540 C.3       1 <0>        -0.1597
     18 C12        -0.7578   -5.8041   -1.4839 C.2       1 <0>         0.5381
     19 O2         -0.8710   -5.1638   -2.5072 O.2       1 <0>        -0.4486
     20 N3         -1.1572   -7.0908   -1.4464 N.am      1 <0>        -0.6844
     21 C13        -1.6825   -7.6657   -2.5464 C.2       1 <0>         0.6978
     22 O3         -1.7961   -7.0238   -3.5722 O.2       1 <0>        -0.5284
     23 N4         -2.0820   -8.9523   -2.5089 N.am      1 <0>        -0.8540
     24 C14         1.3172   -0.7397   -0.0145 C.3       1 <0>         0.1141
     25 C15         0.0021   -0.0041    0.0020 C.2       1 <0>        -0.1928
     26 C16        -0.0157    1.3058    0.0092 C.2       1 <0>        -0.1410
     27 C17         2.7778   -3.0047    7.0388 C.3       1 <0>        -0.0314
     28 H2          4.3537   -2.4772    9.2068 H         1 <0>         0.0579
     29 H3          4.4920   -0.7177    8.9759 H         1 <0>         0.0597
     30 H4          2.9002   -1.4526    9.2833 H         1 <0>         0.0574
     31 H5          1.9276   -0.5110    7.0674 H         1 <0>         0.0660
     32 H6          3.4785    0.3594    7.0452 H         1 <0>         0.0722
     33 H7          2.3588    0.2018    4.7832 H         1 <0>         0.0863
     34 H8          3.9958   -0.5017    4.8268 H         1 <0>         0.0789
     35 H9          0.7240   -5.7059    0.0487 H         1 <0>         0.1404
     36 H10        -0.9019   -5.1865    0.5537 H         1 <0>         0.1405
     37 H11        -1.0666   -7.6030   -0.6277 H         1 <0>         0.4150
     38 H12        -1.9913   -9.4646   -1.6902 H         1 <0>         0.4015
     39 H13        -2.4600   -9.3661   -3.3005 H         1 <0>         0.4232
     40 H14         1.4134   -1.2911   -0.9498 H         1 <0>         0.1068
     41 H15         2.1349   -0.0241    0.0711 H         1 <0>         0.1145
     42 H16        -0.9258   -0.5567    0.0079 H         1 <0>         0.1192
     43 H17         0.9122    1.8585    0.0033 H         1 <0>         0.1041
     44 H18        -0.9582    1.8330    0.0166 H         1 <0>         0.1077
     45 H19         1.9041   -2.9713    7.6897 H         1 <0>         0.0862
     46 H20         3.3488   -3.9119    7.2364 H         1 <0>         0.0837
@<TRIPOS>BOND
     1    1    2 1
     2    1   28 1
     3    1   29 1
     4    1   30 1
     5    2    3 1
     6    2   27 1
     7    2    4 1
     8    4    5 1
     9    4   31 1
    10    4   32 1
    11    5    6 1
    12    5   33 1
    13    5   34 1
    14    6   10 1
    15    6    7 2
    16    7    8 1
    17    7   27 1
    18    8    9 1
    19    9   15 1
    20    9   10 2
    21   10   11 1
    22   11   12 2
    23   11   13 am
    24   13   14 1
    25   13   24 1
    26   14   15 2
    27   14   16 1
    28   16   17 1
    29   17   18 1
    30   17   35 1
    31   17   36 1
    32   18   19 2
    33   18   20 am
    34   20   21 am
    35   20   37 1
    36   21   22 2
    37   21   23 am
    38   23   38 1
    39   23   39 1
    40   24   25 1
    41   24   40 1
    42   24   41 1
    43   25   26 2
    44   25   42 1
    45   26   43 1
    46   26   44 1
    47   27   45 1
    48   27   46 1
@<TRIPOS>MOLECULE
ZINC16789056
   41    43     0     0     0
SMALL
USER_CHARGES
(2R)-2-[[4-amino-5-(2-methyl-3-furyl)-1,2,4-triazol-3-yl]sulfanyl]-N-(2,4-difluorophenyl)propanamide
@<TRIPOS>ATOM
      1 C1          1.7887    3.2990    0.0773 C.3       1 <0>        -0.0837
      2 C2          1.2947    1.8753    0.0764 C.2       1 <0>         0.0661
      3 C3         -0.0086    1.4854    0.0787 C.2       1 <0>        -0.1398
      4 C4          0.0153    0.0172    0.0760 C.2       1 <0>        -0.1797
      5 C5          1.3122   -0.3325    0.0723 C.2       1 <0>        -0.0367
      6 O1          2.0652    0.7779    0.0726 O.3       1 <0>        -0.1737
      7 C6         -1.2021    2.3590    0.0778 C.2       1 <0>         0.3080
      8 N1         -1.2082    3.6715    0.0855 N.2       1 <0>        -0.2749
      9 N2         -2.4178    4.1052    0.0789 N.2       1 <0>        -0.2718
     10 C7         -3.2587    3.0968    0.0754 C.2       1 <0>         0.1071
     11 N3         -2.5149    1.9495    0.0746 N.pl3     1 <0>        -0.3008
     12 N4         -2.9790    0.6648    0.0709 N.3       1 <0>        -0.5800
     13 S1         -5.0175    3.2024    0.0715 S.3       1 <0>         0.0699
     14 C8         -5.2245    5.0005    0.0750 C.3       1 <0>        -0.1023
     15 H1         -4.6784    5.4307   -0.7645 H         1 <0>         0.1313
     16 C9         -4.6802    5.5739    1.3850 C.3       1 <0>        -0.1478
     17 C10        -6.6877    5.3380   -0.0515 C.2       1 <0>         0.5421
     18 O2         -7.5274    4.5406    0.3095 O.2       1 <0>        -0.5003
     19 N5         -7.0633    6.5258   -0.5657 N.am      1 <0>        -0.6595
     20 C11        -8.4218    6.8029   -0.7701 C.ar      1 <0>         0.1012
     21 C12        -9.3726    6.3067    0.1109 C.ar      1 <0>        -0.0642
     22 C13       -10.7113    6.5807   -0.0921 C.ar      1 <0>        -0.1418
     23 C14       -11.1062    7.3499   -1.1737 C.ar      1 <0>         0.1211
     24 C15       -10.1608    7.8463   -2.0550 C.ar      1 <0>        -0.1723
     25 C16        -8.8188    7.5799   -1.8525 C.ar      1 <0>         0.1091
     26 F1         -7.8954    8.0694   -2.7086 F         1 <0>        -0.1259
     27 F2        -12.4162    7.6162   -1.3695 F         1 <0>        -0.1278
     28 H2          1.9101    3.6408    1.1052 H         1 <0>         0.0895
     29 H3          2.7474    3.3513   -0.4386 H         1 <0>         0.0805
     30 H4          1.0658    3.9348   -0.4339 H         1 <0>         0.1067
     31 H5         -0.8366   -0.6466    0.0765 H         1 <0>         0.1621
     32 H6          1.6883   -1.3449    0.0691 H         1 <0>         0.2093
     33 H7         -3.1035    0.3226    1.0119 H         1 <0>         0.3687
     34 H8         -3.8358    0.5913   -0.4569 H         1 <0>         0.3775
     35 H9         -4.8048    6.6568    1.3871 H         1 <0>         0.0768
     36 H10        -5.2262    5.1437    2.2245 H         1 <0>         0.0743
     37 H11        -3.6218    5.3298    1.4765 H         1 <0>         0.0951
     38 H12        -6.3933    7.1890   -0.7944 H         1 <0>         0.4201
     39 H13        -9.0659    5.7069    0.9550 H         1 <0>         0.1611
     40 H14       -11.4508    6.1947    0.5939 H         1 <0>         0.1499
     41 H15       -10.4709    8.4461   -2.8979 H         1 <0>         0.1556
@<TRIPOS>BOND
     1    1    2 1
     2    1   28 1
     3    1   29 1
     4    1   30 1
     5    2    6 1
     6    2    3 2
     7    3    4 1
     8    3    7 1
     9    4    5 2
    10    4   31 1
    11    5    6 1
    12    5   32 1
    13    7   11 1
    14    7    8 2
    15    8    9 1
    16    9   10 2
    17   10   11 1
    18   10   13 1
    19   11   12 1
    20   12   33 1
    21   12   34 1
    22   13   14 1
    23   14   15 1
    24   14   16 1
    25   14   17 1
    26   16   35 1
    27   16   36 1
    28   16   37 1
    29   17   18 2
    30   17   19 am
    31   19   20 1
    32   19   38 1
    33   20   25 ar
    34   20   21 ar
    35   21   22 ar
    36   21   39 1
    37   22   23 ar
    38   22   40 1
    39   23   24 ar
    40   23   27 1
    41   24   25 ar
    42   24   41 1
    43   25   26 1
@<TRIPOS>MOLECULE
ZINC45811692
   54    58     0     0     0
SMALL
USER_CHARGES

@<TRIPOS>ATOM
      1 C1         -0.0167    1.3932    0.0259 C.ar      1 <0>        -0.0185
      2 C2          1.1669    2.0961    0.0183 C.ar      1 <0>        -0.1651
      3 C3          2.3809    1.4170   -0.0131 C.ar      1 <0>         0.2241
      4 C4          2.4032    0.0261   -0.0374 C.ar      1 <0>        -0.1684
      5 C5          1.2232   -0.6830   -0.0299 C.ar      1 <0>        -0.0515
      6 C6          0.0021   -0.0041    0.0020 C.ar      1 <0>        -0.1632
      7 C7         -1.2649   -0.7609    0.0105 C.2       1 <0>         0.5661
      8 O1         -2.3265   -0.1689    0.0384 O.2       1 <0>        -0.5365
      9 N1         -1.2451   -2.1084   -0.0125 N.am      1 <0>        -0.5232
     10 N2         -2.4478   -2.8269   -0.0044 N.am      1 <0>        -0.5201
     11 C8         -2.4280   -4.1743   -0.0275 C.2       1 <0>         0.5244
     12 O2         -1.3690   -4.7648   -0.0552 O.2       1 <0>        -0.5362
     13 C9         -3.7217   -4.9471   -0.0188 C.3       1 <0>        -0.0563
     14 C10        -4.5082   -4.6107    1.2497 C.3       1 <0>        -0.1044
     15 C11        -5.8217   -5.3953    1.2585 C.3       1 <0>        -0.0835
     16 C12        -5.5201   -6.8950    1.2282 C.3       1 <0>        -0.1111
     17 C13        -4.7335   -7.2314   -0.0403 C.3       1 <0>        -0.0864
     18 C14        -3.4201   -6.4468   -0.0491 C.3       1 <0>        -0.0866
     19 C15        -5.5620   -6.8529   -1.2696 C.3       1 <0>        -0.1111
     20 C16        -5.8636   -5.3532   -1.2392 C.3       1 <0>        -0.0835
     21 C17        -6.6502   -5.0168    0.0292 C.3       1 <0>        -0.1116
     22 C18        -4.5502   -4.5686   -1.2481 C.3       1 <0>        -0.1044
     23 N3          3.5779    2.1321   -0.0207 N.am      1 <0>        -0.5698
     24 C19         4.9228    1.5431    0.0615 C.3       1 <0>         0.0817
     25 C20         5.8636    2.7627    0.0127 C.3       1 <0>         0.0907
     26 N4          4.9489    3.9093   -0.0917 N.am      1 <0>        -0.7333
     27 C21         3.6856    3.4643   -0.1097 C.2       1 <0>         0.6997
     28 O3          2.7237    4.2029   -0.1951 O.2       1 <0>        -0.5592
     29 H1         -0.9586    1.9208    0.0548 H         1 <0>         0.1440
     30 H2          1.1532    3.1758    0.0364 H         1 <0>         0.1677
     31 H3          3.3472   -0.4979   -0.0624 H         1 <0>         0.1347
     32 H4          1.2412   -1.7627   -0.0492 H         1 <0>         0.1314
     33 H5         -0.3981   -2.5807   -0.0347 H         1 <0>         0.4304
     34 H6         -3.2947   -2.3546    0.0178 H         1 <0>         0.4320
     35 H7         -3.9180   -4.8804    2.1255 H         1 <0>         0.0713
     36 H8         -4.7231   -3.5423    1.2713 H         1 <0>         0.0683
     37 H9         -6.3820   -5.1556    2.1622 H         1 <0>         0.0769
     38 H10        -4.9298   -7.1647    2.1040 H         1 <0>         0.0641
     39 H11        -6.4558   -7.4540    1.2345 H         1 <0>         0.0660
     40 H12        -4.5186   -8.2998   -0.0619 H         1 <0>         0.0765
     41 H13        -2.8597   -6.6865   -0.9528 H         1 <0>         0.0718
     42 H14        -2.8298   -6.7165    0.8266 H         1 <0>         0.0718
     43 H15        -5.0017   -7.0926   -2.1733 H         1 <0>         0.0641
     44 H16        -6.4977   -7.4119   -1.2633 H         1 <0>         0.0660
     45 H17        -6.4539   -5.0835   -2.1150 H         1 <0>         0.0769
     46 H18        -7.5859   -5.5758    0.0355 H         1 <0>         0.0671
     47 H19        -6.8650   -3.9484    0.0509 H         1 <0>         0.0650
     48 H20        -4.7651   -3.5002   -1.2264 H         1 <0>         0.0683
     49 H21        -3.9898   -4.8083   -2.1518 H         1 <0>         0.0713
     50 H22         5.0467    1.0015    0.9993 H         1 <0>         0.0963
     51 H23         5.1049    0.8852   -0.7883 H         1 <0>         0.0956
     52 H24         6.4547    2.8267    0.9263 H         1 <0>         0.0918
     53 H25         6.5128    2.7103   -0.8613 H         1 <0>         0.0914
     54 H26         5.2177    4.8399   -0.1435 H         1 <0>         0.4365
@<TRIPOS>BOND
     1    1    6 ar
     2    1    2 ar
     3    1   29 1
     4    2    3 ar
     5    2   30 1
     6    3    4 ar
     7    3   23 1
     8    4    5 ar
     9    4   31 1
    10    5    6 ar
    11    5   32 1
    12    6    7 1
    13    7    8 2
    14    7    9 am
    15    9   10 1
    16    9   33 1
    17   10   11 am
    18   10   34 1
    19   11   12 2
    20   11   13 1
    21   13   18 1
    22   13   22 1
    23   13   14 1
    24   14   15 1
    25   14   35 1
    26   14   36 1
    27   15   21 1
    28   15   16 1
    29   15   37 1
    30   16   17 1
    31   16   38 1
    32   16   39 1
    33   17   18 1
    34   17   19 1
    35   17   40 1
    36   18   41 1
    37   18   42 1
    38   19   20 1
    39   19   43 1
    40   19   44 1
    41   20   21 1
    42   20   22 1
    43   20   45 1
    44   21   46 1
    45   21   47 1
    46   22   48 1
    47   22   49 1
    48   23   27 am
    49   23   24 1
    50   24   25 1
    51   24   50 1
    52   24   51 1
    53   25   26 1
    54   25   52 1
    55   25   53 1
    56   26   27 am
    57   26   54 1
    58   27   28 2
@<TRIPOS>MOLECULE
ZINC58343041
   49    52     0     0     0
SMALL
USER_CHARGES

@<TRIPOS>ATOM
      1 C1         -0.1277    1.8344    0.7821 C.ar      1 <0>        -0.1219
      2 C2          1.1023    2.4426    0.6141 C.ar      1 <0>        -0.1161
      3 C3          2.2298    1.6731    0.3965 C.ar      1 <0>        -0.1136
      4 C4          2.1275    0.2954    0.3474 C.ar      1 <0>        -0.0790
      5 C5          0.8977   -0.3128    0.5163 C.ar      1 <0>        -0.1165
      6 C6         -0.2301    0.4567    0.7325 C.ar      1 <0>        -0.1169
      7 C7          3.3566   -0.5434    0.1092 C.3       1 <0>        -0.0430
      8 C8          3.9923   -0.8898    1.4310 C.ar      1 <0>        -0.0865
      9 C9          4.9476   -0.0486    1.9782 C.ar      1 <0>        -0.0746
     10 C10         5.5371   -0.3550    3.1884 C.ar      1 <0>        -0.1429
     11 C11         5.1749   -1.5101    3.8655 C.ar      1 <0>         0.1531
     12 C12         4.2087   -2.3633    3.3156 C.ar      1 <0>        -0.1544
     13 C13         3.6167   -2.0386    2.0925 C.ar      1 <0>        -0.0726
     14 C14         3.8153   -3.5948    4.0266 C.2       1 <0>         0.5683
     15 O1          4.6615   -4.4035    4.3557 O.2       1 <0>        -0.5095
     16 N1          2.5179   -3.8233    4.3113 N.am      1 <0>        -0.6127
     17 C15         2.1217   -4.9960    5.1027 C.3       1 <0>         0.1150
     18 C16         1.2779   -4.5248    6.2923 C.3       1 <0>        -0.1296
     19 C17         0.1198   -3.6718    5.7850 C.3       1 <0>         0.1237
     20 C18         0.6362   -2.4485    5.0348 C.3       1 <0>        -0.1292
     21 C19         1.4757   -2.9007    3.8407 C.3       1 <0>         0.1012
     22 C20        -0.7674   -3.2504    6.9336 C.2       1 <0>         0.5347
     23 O2         -0.4572   -2.5741    7.8907 O.2       1 <0>        -0.4555
     24 N2         -1.9776   -3.7847    6.6689 N.am      1 <0>        -0.6800
     25 C21        -1.9711   -4.4767    5.5230 C.2       1 <0>         0.7055
     26 O3         -2.9444   -5.0492    5.0735 O.2       1 <0>        -0.5362
     27 N3         -0.7650   -4.4669    4.9238 N.am      1 <0>        -0.7170
     28 O4          5.7536   -1.8128    5.0545 O.3       1 <0>        -0.4841
     29 H1         -1.0079    2.4354    0.9566 H         1 <0>         0.1212
     30 H2          1.1822    3.5189    0.6525 H         1 <0>         0.1222
     31 H3          3.1907    2.1483    0.2646 H         1 <0>         0.1212
     32 H4          0.8177   -1.3892    0.4776 H         1 <0>         0.1198
     33 H5         -1.1910   -0.0184    0.8640 H         1 <0>         0.1217
     34 H6          3.0761   -1.4597   -0.4102 H         1 <0>         0.0857
     35 H7          4.0664    0.0167   -0.4996 H         1 <0>         0.0875
     36 H8          5.2330    0.8520    1.4548 H         1 <0>         0.1324
     37 H9          6.2815    0.3053    3.6082 H         1 <0>         0.1381
     38 H10         2.8687   -2.6893    1.6641 H         1 <0>         0.1316
     39 H11         1.5340   -5.6735    4.4832 H         1 <0>         0.0742
     40 H12         3.0119   -5.5092    5.4664 H         1 <0>         0.1076
     41 H13         0.8854   -5.3907    6.8254 H         1 <0>         0.0919
     42 H14         1.8976   -3.9329    6.9659 H         1 <0>         0.0970
     43 H15        -0.2075   -1.8544    4.6836 H         1 <0>         0.0919
     44 H16         1.2527   -1.8462    5.7021 H         1 <0>         0.0961
     45 H17         1.9401   -2.0327    3.3727 H         1 <0>         0.1063
     46 H18         0.8359   -3.4091    3.1195 H         1 <0>         0.0760
     47 H19        -2.7559   -3.6806    7.2384 H         1 <0>         0.4350
     48 H20        -0.5276   -4.8996    4.0888 H         1 <0>         0.4406
     49 H21         5.2870   -1.4539    5.8217 H         1 <0>         0.3924
@<TRIPOS>BOND
     1    1    6 ar
     2    1    2 ar
     3    1   29 1
     4    2    3 ar
     5    2   30 1
     6    3    4 ar
     7    3   31 1
     8    4    5 ar
     9    4    7 1
    10    5    6 ar
    11    5   32 1
    12    6   33 1
    13    7    8 1
    14    7   34 1
    15    7   35 1
    16    8   13 ar
    17    8    9 ar
    18    9   10 ar
    19    9   36 1
    20   10   11 ar
    21   10   37 1
    22   11   12 ar
    23   11   28 1
    24   12   13 ar
    25   12   14 1
    26   13   38 1
    27   14   15 2
    28   14   16 am
    29   16   21 1
    30   16   17 1
    31   17   18 1
    32   17   39 1
    33   17   40 1
    34   18   19 1
    35   18   41 1
    36   18   42 1
    37   19   27 1
    38   19   20 1
    39   19   22 1
    40   20   21 1
    41   20   43 1
    42   20   44 1
    43   21   45 1
    44   21   46 1
    45   22   23 2
    46   22   24 am
    47   24   25 am
    48   24   47 1
    49   25   26 2
    50   25   27 am
    51   27   48 1
    52   28   49 1
@<TRIPOS>MOLECULE
ZINC66600137
   61    63     0     0     0
SMALL
USER_CHARGES

@<TRIPOS>ATOM
      1 C1         -0.0333    1.5246    0.0272 C.3       1 <0>        -0.1391
      2 C2         -0.0067   -0.0051    0.0117 C.3       1 <0>        -0.0780
      3 C3          0.7828   -0.5075   -1.2147 C.3       1 <0>        -0.1172
      4 C4          2.2111   -0.7579   -0.6704 C.3       1 <0>        -0.1245
      5 C5          1.9424   -1.3364    0.7411 C.3       1 <0>        -0.1253
      6 C6          0.7305   -0.5322    1.2552 C.3       1 <0>        -0.1136
      7 C7         -1.4347   -0.5533   -0.0226 C.3       1 <0>         0.1496
      8 N1         -2.1196   -0.0575   -1.2190 N.am      1 <0>        -0.7436
      9 C8         -3.3972   -0.4127   -1.4600 C.2       1 <0>         0.7081
     10 O1         -3.9514   -1.2173   -0.7362 O.2       1 <0>        -0.5875
     11 N2         -4.0605    0.1239   -2.5033 N.am      1 <0>        -0.6306
     12 C9         -3.3712    1.0063   -3.4546 C.3       1 <0>         0.1134
     13 C10        -4.1524    2.3195   -3.5641 C.3       1 <0>        -0.1172
     14 C11        -5.6067    2.0143   -3.9302 C.3       1 <0>        -0.1063
     15 C12        -6.2439    1.1636   -2.8291 C.3       1 <0>        -0.1241
     16 C13        -5.4850   -0.1672   -2.7145 C.3       1 <0>         0.1327
     17 C14        -6.3703    3.3057   -4.0721 C.2       1 <0>         0.5228
     18 O2         -5.9913    4.3012   -3.4923 O.2       1 <0>        -0.5351
     19 N3         -7.4745    3.3544   -4.8433 N.am      1 <0>        -0.6140
     20 C15        -7.8912    2.1847   -5.6288 C.3       1 <0>         0.1028
     21 C16        -9.3502    1.8598   -5.2934 C.3       1 <0>        -0.1172
     22 C17       -10.2104    3.1058   -5.5168 C.3       1 <0>        -0.1089
     23 C18        -9.7391    4.2265   -4.5873 C.3       1 <0>        -0.1264
     24 C19        -8.2879    4.5762   -4.9099 C.3       1 <0>         0.1125
     25 C20       -11.6517    2.7805   -5.2205 C.2       1 <0>         0.5207
     26 O3        -11.9605    1.6626   -4.8657 O.2       1 <0>        -0.5391
     27 N4        -12.5976    3.7319   -5.3498 N.am      1 <0>        -0.8557
     28 H1          0.9879    1.9057    0.0266 H         1 <0>         0.0606
     29 H2         -0.5572    1.8879   -0.8569 H         1 <0>         0.0518
     30 H3         -0.5495    1.8699    0.9230 H         1 <0>         0.0588
     31 H4          0.3509   -1.4340   -1.5931 H         1 <0>         0.0693
     32 H5          0.8000    0.2532   -1.9952 H         1 <0>         0.0647
     33 H6          2.7394   -1.4821   -1.2905 H         1 <0>         0.0662
     34 H7          2.7690    0.1763   -0.6052 H         1 <0>         0.0669
     35 H8          1.6978   -2.3968    0.6785 H         1 <0>         0.0662
     36 H9          2.8058   -1.1807    1.3879 H         1 <0>         0.0661
     37 H10         1.0694    0.3018    1.8698 H         1 <0>         0.0701
     38 H11         0.0713   -1.1792    1.8338 H         1 <0>         0.0687
     39 H12        -1.4052   -1.6427   -0.0460 H         1 <0>         0.0681
     40 H13        -1.9720   -0.2235    0.8666 H         1 <0>         0.0653
     41 H14        -1.6536    0.5264   -1.8376 H         1 <0>         0.3947
     42 H15        -2.3615    1.2104   -3.0982 H         1 <0>         0.0791
     43 H16        -3.3257    0.5257   -4.4319 H         1 <0>         0.0732
     44 H17        -4.1199    2.8429   -2.6085 H         1 <0>         0.0812
     45 H18        -3.7062    2.9449   -4.3373 H         1 <0>         0.0802
     46 H19        -5.6370    1.4692   -4.8736 H         1 <0>         0.0968
     47 H20        -6.1917    1.6978   -1.8804 H         1 <0>         0.0761
     48 H21        -7.2863    0.9662   -3.0792 H         1 <0>         0.0817
     49 H22        -5.6084   -0.7416   -3.6326 H         1 <0>         0.0696
     50 H23        -5.8705   -0.7377   -1.8695 H         1 <0>         0.0998
     51 H24        -7.8016    2.4077   -6.6920 H         1 <0>         0.0745
     52 H25        -7.2600    1.3323   -5.3777 H         1 <0>         0.0940
     53 H26        -9.7013    1.0548   -5.9390 H         1 <0>         0.0873
     54 H27        -9.4235    1.5493   -4.2512 H         1 <0>         0.0777
     55 H28       -10.1172    3.4303   -6.5532 H         1 <0>         0.1022
     56 H29       -10.3670    5.1059   -4.7302 H         1 <0>         0.0817
     57 H30        -9.8087    3.8936   -3.5517 H         1 <0>         0.0747
     58 H31        -7.9184    5.3011   -4.1846 H         1 <0>         0.0974
     59 H32        -8.2313    4.9986   -5.9132 H         1 <0>         0.0713
     60 H33       -12.3506    4.6259   -5.6336 H         1 <0>         0.4016
     61 H34       -13.5253    3.5225   -5.1590 H         1 <0>         0.4030
@<TRIPOS>BOND
     1    1    2 1
     2    1   28 1
     3    1   29 1
     4    1   30 1
     5    2    6 1
     6    2    3 1
     7    2    7 1
     8    3    4 1
     9    3   31 1
    10    3   32 1
    11    4    5 1
    12    4   33 1
    13    4   34 1
    14    5    6 1
    15    5   35 1
    16    5   36 1
    17    6   37 1
    18    6   38 1
    19    7    8 1
    20    7   39 1
    21    7   40 1
    22    8    9 am
    23    8   41 1
    24    9   10 2
    25    9   11 am
    26   11   16 1
    27   11   12 1
    28   12   13 1
    29   12   42 1
    30   12   43 1
    31   13   14 1
    32   13   44 1
    33   13   45 1
    34   14   15 1
    35   14   17 1
    36   14   46 1
    37   15   16 1
    38   15   47 1
    39   15   48 1
    40   16   49 1
    41   16   50 1
    42   17   18 2
    43   17   19 am
    44   19   24 1
    45   19   20 1
    46   20   21 1
    47   20   51 1
    48   20   52 1
    49   21   22 1
    50   21   53 1
    51   21   54 1
    52   22   23 1
    53   22   25 1
    54   22   55 1
    55   23   24 1
    56   23   56 1
    57   23   57 1
    58   24   58 1
    59   24   59 1
    60   25   26 2
    61   25   27 am
    62   27   60 1
    63   27   61 1
@<TRIPOS>MOLECULE
ZINC13079531
   34    35     0     0     0
SMALL
USER_CHARGES
4-[[(1R)-1-(2,4-dichlorophenyl)ethyl]amino]-3-nitro-benzoic acid
@<TRIPOS>ATOM
      1 C1         -1.3403    4.1240    0.7208 C.3       1 <0>        -0.1645
      2 C2         -1.2453    3.4613   -0.6550 C.3       1 <0>         0.1818
      3 H1         -0.3347    3.7912   -1.1550 H         1 <0>         0.1039
      4 C3         -2.4424    3.8501   -1.4836 C.ar      1 <0>        -0.0751
      5 C4         -3.5478    3.0214   -1.5323 C.ar      1 <0>        -0.0897
      6 C5         -4.6483    3.3800   -2.2875 C.ar      1 <0>        -0.0961
      7 C6         -4.6398    4.5636   -3.0045 C.ar      1 <0>        -0.0256
      8 C7         -3.5320    5.3904   -2.9606 C.ar      1 <0>        -0.0976
      9 C8         -2.4328    5.0336   -2.1999 C.ar      1 <0>        -0.0175
     10 Cl1        -1.0420    6.0710   -2.1438 Cl        1 <0>        -0.0469
     11 Cl2        -6.0197    5.0107   -3.9583 Cl        1 <0>        -0.0561
     12 N1         -1.2144    2.0054   -0.4946 N.pl3     1 <0>        -0.7300
     13 C9         -0.0089    1.3588   -0.2475 C.ar      1 <0>         0.2757
     14 C10         1.1828    2.0786   -0.2697 C.ar      1 <0>        -0.2132
     15 C11         2.3709    1.4480   -0.0333 C.ar      1 <0>         0.0181
     16 C12         2.3943    0.0751    0.2323 C.ar      1 <0>        -0.1573
     17 C13         1.1987   -0.6501    0.2552 C.ar      1 <0>         0.0122
     18 C14         0.0048   -0.0083    0.0161 C.ar      1 <0>        -0.1272
     19 N2         -1.2637   -0.7708    0.0395 N.pl3     1 <0>         0.0458
     20 O1         -2.2706   -0.2639    0.5008 O.2       1 <0>        -0.1999
     21 O2         -1.3006   -1.9052   -0.4025 O.3       1 <0>        -0.1561
     22 C15         3.6762   -0.6061    0.4871 C.2       1 <0>         0.4959
     23 O3          3.6951   -1.7991    0.7173 O.co2     1 <0>        -0.6257
     24 H2         -0.4744    3.8428    1.3202 H         1 <0>         0.0735
     25 H3         -1.3633    5.2072    0.6015 H         1 <0>         0.0711
     26 H4         -2.2510    3.7942    1.2208 H         1 <0>         0.0660
     27 H5         -3.5530    2.0952   -0.9767 H         1 <0>         0.1435
     28 H6         -5.5134    2.7344   -2.3214 H         1 <0>         0.1447
     29 H7         -3.5247    6.3141   -3.5203 H         1 <0>         0.1474
     30 H8         -2.0351    1.4927   -0.5609 H         1 <0>         0.4062
     31 H9          1.1676    3.1389   -0.4749 H         1 <0>         0.1398
     32 H10         3.2930    2.0099   -0.0514 H         1 <0>         0.1500
     33 H11         1.2122   -1.7105    0.4595 H         1 <0>         0.1516
     34 O4          4.8274    0.0941    0.4647 O.co2     1 <0>        -0.7487
@<TRIPOS>BOND
     1    1    2 1
     2    1   24 1
     3    1   25 1
     4    1   26 1
     5    2    3 1
     6    2    4 1
     7    2   12 1
     8    4    9 ar
     9    4    5 ar
    10    5    6 ar
    11    5   27 1
    12    6    7 ar
    13    6   28 1
    14    7    8 ar
    15    7   11 1
    16    8    9 ar
    17    8   29 1
    18    9   10 1
    19   12   13 1
    20   12   30 1
    21   13   18 ar
    22   13   14 ar
    23   14   15 ar
    24   14   31 1
    25   15   16 ar
    26   15   32 1
    27   16   17 ar
    28   16   22 1
    29   17   18 ar
    30   17   33 1
    31   18   19 1
    32   19   20 2
    33   19   21 1
    34   22   23 2
    35   22   34 1
@<TRIPOS>MOLECULE
ZINC15226522
   47    49     0     0     0
SMALL
USER_CHARGES
(1R,6R)-6-(4-chlorophenyl)-4-methyl-1-[(4-pyridylmethyleneamino)carbamoyl]cyclohex-3-ene-1-carboxylic acid
@<TRIPOS>ATOM
      1 C1          0.9845    3.7323    0.0584 C.3       1 <0>        -0.1132
      2 C2          1.1205    2.2317    0.0299 C.2       1 <0>        -0.0749
      3 C3          0.0379    1.5233    0.0704 C.2       1 <0>        -0.1599
      4 C4          0.0140    0.0228    0.0592 C.3       1 <0>        -0.0531
      5 C5          1.3589   -0.5221   -0.4265 C.3       1 <0>        -0.1168
      6 C6          2.4770    0.1756    0.3584 C.3       1 <0>        -0.0092
      7 H1          2.2821    0.0908    1.4275 H         1 <0>         0.0762
      8 C7          2.5026    1.6517   -0.0442 C.3       1 <0>        -0.0725
      9 C8          3.8018   -0.4625    0.0285 C.ar      1 <0>        -0.0548
     10 C9          4.5031   -1.1435    1.0060 C.ar      1 <0>        -0.0672
     11 C10         5.7155   -1.7338    0.7025 C.ar      1 <0>        -0.1232
     12 C11         6.2326   -1.6332   -0.5768 C.ar      1 <0>        -0.0389
     13 C12         5.5329   -0.9467   -1.5531 C.ar      1 <0>        -0.1154
     14 C13         4.3179   -0.3617   -1.2500 C.ar      1 <0>        -0.0859
     15 Cl1         7.7584   -2.3688   -0.9570 Cl        1 <0>        -0.0936
     16 C14         1.4209   -2.0081   -0.1837 C.2       1 <0>         0.5663
     17 O1          2.2859   -2.4705    0.5298 O.2       1 <0>        -0.5044
     18 N1          0.5151   -2.8233   -0.7595 N.am      1 <0>        -0.5621
     19 N2          0.5727   -4.2048   -0.5338 N.2       1 <0>        -0.1945
     20 C15        -0.2994   -4.9897   -1.0882 C.2       1 <0>         0.0650
     21 C16        -0.2388   -6.4438   -0.8506 C.ar      1 <0>         0.0104
     22 C17         0.7555   -6.9996   -0.0347 C.ar      1 <0>        -0.1396
     23 C18         0.7714   -8.3642    0.1635 C.ar      1 <0>         0.0964
     24 N3         -0.1257   -9.1432   -0.4105 N.ar      1 <0>        -0.4870
     25 C19        -1.0757   -8.6623   -1.1899 C.ar      1 <0>         0.0947
     26 C20        -1.1703   -7.3093   -1.4392 C.ar      1 <0>        -0.1534
     27 C21         1.5193   -0.2377   -1.8977 C.2       1 <0>         0.4812
     28 O2          1.7889   -1.1350   -2.6605 O.co2     1 <0>        -0.6258
     29 H2         -0.0706    4.0005    0.1120 H         1 <0>         0.0528
     30 H3          1.5047    4.1278    0.9307 H         1 <0>         0.0541
     31 H4          1.4210    4.1539   -0.8471 H         1 <0>         0.0642
     32 H5         -0.9072    2.0445    0.1105 H         1 <0>         0.0955
     33 H6         -0.1813   -0.3430    1.0672 H         1 <0>         0.0616
     34 H7         -0.7754   -0.3209   -0.6092 H         1 <0>         0.0640
     35 H8          3.1607    2.1990    0.6306 H         1 <0>         0.0570
     36 H9          2.8780    1.7417   -1.0636 H         1 <0>         0.1048
     37 H10         4.1015   -1.2182    2.0057 H         1 <0>         0.1236
     38 H11         6.2612   -2.2696    1.4651 H         1 <0>         0.1234
     39 H12         5.9359   -0.8682   -2.5521 H         1 <0>         0.1246
     40 H13         3.7715    0.1740   -2.0121 H         1 <0>         0.1428
     41 H14        -0.1767   -2.4535   -1.3301 H         1 <0>         0.3904
     42 H15        -1.0696   -4.5779   -1.7235 H         1 <0>         0.1227
     43 H16         1.4955   -6.3686    0.4349 H         1 <0>         0.1463
     44 H17         1.5311   -8.8019    0.7943 H         1 <0>         0.1574
     45 H18        -1.7887   -9.3377   -1.6391 H         1 <0>         0.1570
     46 H19        -1.9503   -6.9228   -2.0785 H         1 <0>         0.1393
     47 O3          1.3626    1.0124   -2.3606 O.co2     1 <0>        -0.7263
@<TRIPOS>BOND
     1    1    2 1
     2    1   29 1
     3    1   30 1
     4    1   31 1
     5    2    8 1
     6    2    3 2
     7    3    4 1
     8    3   32 1
     9    4    5 1
    10    4   33 1
    11    4   34 1
    12    5    6 1
    13    5   16 1
    14    5   27 1
    15    6    7 1
    16    6    8 1
    17    6    9 1
    18    8   35 1
    19    8   36 1
    20    9   14 ar
    21    9   10 ar
    22   10   11 ar
    23   10   37 1
    24   11   12 ar
    25   11   38 1
    26   12   13 ar
    27   12   15 1
    28   13   14 ar
    29   13   39 1
    30   14   40 1
    31   16   17 2
    32   16   18 am
    33   18   19 1
    34   18   41 1
    35   19   20 2
    36   20   21 1
    37   20   42 1
    38   21   26 ar
    39   21   22 ar
    40   22   23 ar
    41   22   43 1
    42   23   24 ar
    43   23   44 1
    44   24   25 ar
    45   25   26 ar
    46   25   45 1
    47   26   46 1
    48   27   28 2
    49   27   47 1
@<TRIPOS>MOLECULE
ZINC39557355
   46    47     0     0     0
SMALL
USER_CHARGES

@<TRIPOS>ATOM
      1 C1          0.4887    1.0914   -0.4989 C.3       1 <0>        -0.1152
      2 C2         -0.0953   -0.2880   -0.3336 C.ar      1 <0>        -0.0679
      3 C3         -0.7786   -0.8789   -1.3809 C.ar      1 <0>        -0.1373
      4 C4         -1.3159   -2.1443   -1.2334 C.ar      1 <0>        -0.1005
      5 C5         -1.1720   -2.8223   -0.0386 C.ar      1 <0>        -0.1327
      6 C6         -0.4865   -2.2319    1.0149 C.ar      1 <0>         0.1548
      7 C7          0.0573   -0.9629    0.8614 C.ar      1 <0>        -0.1183
      8 C8          0.8078   -0.3210    1.9997 C.3       1 <0>        -0.1188
      9 N1         -0.3391   -2.9156    2.2259 N.am      1 <0>        -0.6666
     10 C9         -0.3988   -4.2618    2.2512 C.2       1 <0>         0.5821
     11 O1         -0.4865   -4.8865    1.2110 O.2       1 <0>        -0.5141
     12 C10        -0.3578   -4.9757    3.5367 C.2       1 <0>        -0.1764
     13 C11        -0.4188   -6.3520    3.5626 C.2       1 <0>         0.1171
     14 C12        -0.5702   -7.0543    4.8387 C.ar      1 <0>        -0.1878
     15 C13        -1.2155   -6.4279    5.9148 C.ar      1 <0>        -0.0342
     16 C14        -1.3536   -7.0881    7.1027 C.ar      1 <0>        -0.2293
     17 C15        -0.8558   -8.3792    7.2462 C.ar      1 <0>         0.1899
     18 C16        -0.2144   -9.0057    6.1825 C.ar      1 <0>        -0.1733
     19 C17        -0.0756   -8.3582    4.9878 C.ar      1 <0>        -0.0262
     20 O2         -0.9960   -9.0298    8.4285 O.3       1 <0>        -0.2679
     21 C18        -1.7321   -8.3603    9.4541 C.3       1 <0>         0.0019
     22 H1         -1.6481   -7.2823    9.3169 H         1 <0>         0.0753
     23 C19        -3.2039   -8.7711    9.3765 C.3       1 <0>        -0.1507
     24 C20        -1.1750   -8.7402   10.8018 C.2       1 <0>         0.5037
     25 O3         -0.2347   -9.5126   10.8771 O.co2     1 <0>        -0.6701
     26 O4         -1.6645   -8.2750   11.8170 O.co2     1 <0>        -0.6818
     27 C21        -0.2545   -4.2404    4.7611 C.1       1 <0>         0.2479
     28 N2         -0.1726   -3.6571    5.7325 N.1       1 <0>        -0.4102
     29 H2          1.5055    1.0119   -0.8834 H         1 <0>         0.0706
     30 H3         -0.1209    1.6625   -1.1991 H         1 <0>         0.0667
     31 H4          0.5038    1.5976    0.4663 H         1 <0>         0.0682
     32 H5         -0.8931   -0.3505   -2.3159 H         1 <0>         0.1210
     33 H6         -1.8489   -2.6029   -2.0531 H         1 <0>         0.1252
     34 H7         -1.5925   -3.8105    0.0762 H         1 <0>         0.1489
     35 H8          0.1129    0.2463    2.6190 H         1 <0>         0.0711
     36 H9          1.2840   -1.0941    2.6027 H         1 <0>         0.0621
     37 H10         1.5693    0.3492    1.6008 H         1 <0>         0.0750
     38 H11        -0.1938   -2.4210    3.0475 H         1 <0>         0.4107
     39 H12        -0.3550   -6.9129    2.6419 H         1 <0>         0.1616
     40 H13        -1.6021   -5.4255    5.8047 H         1 <0>         0.1248
     41 H14        -1.8500   -6.6067    7.9323 H         1 <0>         0.1385
     42 H15         0.1703  -10.0080    6.3001 H         1 <0>         0.1395
     43 H16         0.4183   -8.8474    4.1612 H         1 <0>         0.1377
     44 H17        -3.7654   -8.2603   10.1588 H         1 <0>         0.0776
     45 H18        -3.6069   -8.4963    8.4017 H         1 <0>         0.0463
     46 H19        -3.2880   -9.8491    9.5137 H         1 <0>         0.0614
@<TRIPOS>BOND
     1    1    2 1
     2    1   29 1
     3    1   30 1
     4    1   31 1
     5    2    7 ar
     6    2    3 ar
     7    3    4 ar
     8    3   32 1
     9    4    5 ar
    10    4   33 1
    11    5    6 ar
    12    5   34 1
    13    6    7 ar
    14    6    9 1
    15    7    8 1
    16    8   35 1
    17    8   36 1
    18    8   37 1
    19    9   10 am
    20    9   38 1
    21   10   11 2
    22   10   12 1
    23   12   13 2
    24   12   27 1
    25   13   14 1
    26   13   39 1
    27   14   19 ar
    28   14   15 ar
    29   15   16 ar
    30   15   40 1
    31   16   17 ar
    32   16   41 1
    33   17   18 ar
    34   17   20 1
    35   18   19 ar
    36   18   42 1
    37   19   43 1
    38   20   21 1
    39   21   22 1
    40   21   23 1
    41   21   24 1
    42   23   44 1
    43   23   45 1
    44   23   46 1
    45   24   25 2
    46   24   26 1
    47   27   28 3
@<TRIPOS>MOLECULE
ZINC50811131
   34    36     0     0     0
SMALL
USER_CHARGES

@<TRIPOS>ATOM
      1 C1          0.1614    1.3670    0.6745 C.ar      1 <0>        -0.0964
      2 C2          1.1772    2.0857    0.0708 C.ar      1 <0>        -0.1492
      3 C3          2.2133    1.4253   -0.5634 C.ar      1 <0>        -0.0931
      4 C4          2.2368    0.0437   -0.5957 C.ar      1 <0>        -0.0899
      5 C5          1.2173   -0.6810    0.0101 C.ar      1 <0>         0.1937
      6 C6          0.1785   -0.0137    0.6460 C.ar      1 <0>        -0.1208
      7 N1          1.2372   -2.0793   -0.0209 N.pl3     1 <0>        -0.6682
      8 C7          0.0729   -2.7804    0.0898 C.2       1 <0>         0.5490
      9 O1         -1.1065   -2.1293    0.1068 O.3       1 <0>        -0.6158
     10 C8          0.1029   -4.1690    0.1851 C.2       1 <0>        -0.4273
     11 C9          1.3564   -4.8611    0.1670 C.1       1 <0>         0.2933
     12 N2          2.3508   -5.4101    0.1526 N.1       1 <0>        -0.5230
     13 C10        -1.1492   -4.9229    0.3041 C.2       1 <0>         0.4915
     14 O2         -2.2200   -4.3433    0.2268 O.2       1 <0>        -0.4610
     15 C11        -1.1144   -6.3692    0.5154 C.2       1 <0>        -0.0684
     16 C12        -0.9966   -7.0286    1.7296 C.2       1 <0>         0.1370
     17 N3         -1.0049   -8.3322    1.4945 N.2       1 <0>        -0.4851
     18 C13        -1.1222   -8.5542    0.1865 C.2       1 <0>         0.2279
     19 N4         -1.1984   -7.3504   -0.4556 N.pl3     1 <0>        -0.3329
     20 C14        -1.3289   -7.2929   -1.8081 C.2       1 <0>         0.0740
     21 C15        -1.3888   -8.4263   -2.5435 C.2       1 <0>        -0.1474
     22 C16        -1.3166   -9.6775   -1.9153 C.2       1 <0>        -0.0993
     23 C17        -1.1785   -9.7443   -0.5610 C.2       1 <0>        -0.0810
     24 Cl1        -0.8609   -6.2759    3.2880 Cl        1 <0>         0.0097
     25 Cl2         3.5375   -0.7851   -1.3925 Cl        1 <0>        -0.0800
     26 H1         -0.6440    1.8862    1.1727 H         1 <0>         0.1256
     27 H2          1.1608    3.1653    0.0944 H         1 <0>         0.1235
     28 H3          3.0047    1.9896   -1.0341 H         1 <0>         0.1275
     29 H4         -0.6150   -0.5739    1.1181 H         1 <0>         0.1673
     30 H5          2.0793   -2.5502   -0.1211 H         1 <0>         0.4048
     31 H6         -1.3857   -6.3329   -2.2996 H         1 <0>         0.1667
     32 H7         -1.4929   -8.3675   -3.6169 H         1 <0>         0.1529
     33 H8         -1.3643  -10.5832   -2.5016 H         1 <0>         0.1430
     34 H9         -1.1230  -10.7023   -0.0655 H         1 <0>         0.1513
@<TRIPOS>BOND
     1    1    6 ar
     2    1    2 ar
     3    1   26 1
     4    2    3 ar
     5    2   27 1
     6    3    4 ar
     7    3   28 1
     8    4    5 ar
     9    4   25 1
    10    5    6 ar
    11    5    7 1
    12    6   29 1
    13    7    8 1
    14    7   30 1
    15    8    9 1
    16    8   10 2
    17   10   11 1
    18   10   13 1
    19   11   12 3
    20   13   14 2
    21   13   15 1
    22   15   19 1
    23   15   16 2
    24   16   17 1
    25   16   24 1
    26   17   18 2
    27   18   23 1
    28   18   19 1
    29   19   20 1
    30   20   21 2
    31   20   31 1
    32   21   22 1
    33   21   32 1
    34   22   23 2
    35   22   33 1
    36   23   34 1
@<TRIPOS>MOLECULE
ZINC59302762
   47    49     0     0     0
SMALL
USER_CHARGES

@<TRIPOS>ATOM
      1 C1         -0.0283    1.5015    0.0070 C.3       1 <0>        -0.1045
      2 C2         -0.0055   -0.0053    0.0002 C.2       1 <0>         0.0660
      3 C3          0.0072   -0.7824   -1.0974 C.2       1 <0>        -0.1744
      4 C4          0.0277   -2.1710   -0.6254 C.2       1 <0>        -0.2829
      5 C5          0.0257   -2.1101    0.7407 C.2       1 <0>         0.1938
      6 N1          0.0116   -0.8046    1.1082 N.pl3     1 <0>        -0.3407
      7 C6          0.0113   -0.3427    2.4322 C.ar      1 <0>         0.0101
      8 C7          1.1107   -0.5732    3.2451 C.ar      1 <0>        -0.0661
      9 C8          1.1143   -0.1149    4.5653 C.ar      1 <0>        -0.1400
     10 C9          0.0105    0.5754    5.0647 C.ar      1 <0>        -0.0162
     11 C10        -1.0928    0.8055    4.2437 C.ar      1 <0>        -0.1399
     12 C11        -1.0861    0.3483    2.9231 C.ar      1 <0>        -0.0659
     13 C12        -2.2637    1.5355    4.7670 C.2       1 <0>         0.5246
     14 O1         -2.2668    1.9391    5.9213 O.co2     1 <0>        -0.6733
     15 O2         -3.2309    1.7368    4.0463 O.co2     1 <0>        -0.6940
     16 C13         2.2845   -0.3616    5.4299 C.2       1 <0>         0.5249
     17 O3          3.2520   -0.9675    4.9912 O.co2     1 <0>        -0.6950
     18 O4          2.2868    0.0398    6.5850 O.co2     1 <0>        -0.6730
     19 C14         0.0427   -3.2908    1.6771 C.3       1 <0>        -0.1206
     20 C15         0.0464   -3.3862   -1.4557 C.2       1 <0>         0.3923
     21 N2         -0.0566   -3.2924   -2.7437 N.pl3     1 <0>        -0.5813
     22 C16        -0.1517   -4.5044   -3.5611 C.3       1 <0>         0.1146
     23 C17        -1.5000   -4.5531   -4.2325 C.ar      1 <0>        -0.1404
     24 C18        -2.5649   -5.1677   -3.6007 C.ar      1 <0>        -0.0944
     25 C19        -3.8017   -5.2123   -4.2166 C.ar      1 <0>        -0.1166
     26 C20        -3.9737   -4.6420   -5.4640 C.ar      1 <0>        -0.0969
     27 C21        -2.9090   -4.0266   -6.0953 C.ar      1 <0>        -0.1187
     28 C22        -1.6732   -3.9782   -5.4776 C.ar      1 <0>        -0.0972
     29 H1          0.9937    1.8804    0.0040 H         1 <0>         0.0833
     30 H2         -0.5516    1.8610   -0.8791 H         1 <0>         0.0860
     31 H3         -0.5435    1.8531    0.9009 H         1 <0>         0.0867
     32 H4          0.0027   -0.4493   -2.1248 H         1 <0>         0.1527
     33 H5          1.9652   -1.1079    2.8575 H         1 <0>         0.1267
     34 H6          0.0100    0.9306    6.0846 H         1 <0>         0.1454
     35 H7         -1.9386    0.5296    2.2853 H         1 <0>         0.1276
     36 H8          1.0697   -3.5053    1.9727 H         1 <0>         0.1042
     37 H9         -0.5498   -3.0608    2.5626 H         1 <0>         0.0971
     38 H10        -0.3795   -4.1603    1.1732 H         1 <0>         0.0886
     39 H11         0.1460   -4.3561   -0.9911 H         1 <0>         0.1949
     40 H12         0.6315   -4.4937   -4.3192 H         1 <0>         0.1190
     41 H13        -0.0303   -5.3817   -2.9257 H         1 <0>         0.1200
     42 H14        -2.4305   -5.6133   -2.6262 H         1 <0>         0.1275
     43 H15        -4.6335   -5.6931   -3.7233 H         1 <0>         0.1311
     44 H16        -4.9397   -4.6775   -5.9454 H         1 <0>         0.1295
     45 H17        -3.0432   -3.5813   -7.0701 H         1 <0>         0.1298
     46 H18        -0.8424   -3.4942   -5.9693 H         1 <0>         0.1274
     47 H19        -0.0709   -2.4197   -3.1668 H         1 <0>         0.4279
@<TRIPOS>BOND
     1    1    2 1
     2    1   29 1
     3    1   30 1
     4    1   31 1
     5    2    6 1
     6    2    3 2
     7    3    4 1
     8    3   32 1
     9    4    5 2
    10    4   20 1
    11    5    6 1
    12    5   19 1
    13    6    7 1
    14    7   12 ar
    15    7    8 ar
    16    8    9 ar
    17    8   33 1
    18    9   10 ar
    19    9   16 1
    20   10   11 ar
    21   10   34 1
    22   11   12 ar
    23   11   13 1
    24   12   35 1
    25   13   14 2
    26   13   15 1
    27   16   17 2
    28   16   18 1
    29   19   36 1
    30   19   37 1
    31   19   38 1
    32   20   21 2
    33   20   39 1
    34   21   22 1
    35   21   47 1
    36   22   23 1
    37   22   40 1
    38   22   41 1
    39   23   28 ar
    40   23   24 ar
    41   24   25 ar
    42   24   42 1
    43   25   26 ar
    44   25   43 1
    45   26   27 ar
    46   26   44 1
    47   27   28 ar
    48   27   45 1
    49   28   46 1
@<TRIPOS>MOLECULE
ZINC06059537
   34    36     0     0     0
SMALL
USER_CHARGES
2-[[3-(2-bromophenyl)-5-thioxo-1H-1,2,4-triazol-4-yl]iminomethyl]benzoic acid
@<TRIPOS>ATOM
      1 C1          3.1084   -0.5618   -0.1169 C.ar      1 <0>        -0.1355
      2 C2          4.3444   -1.1870   -0.1648 C.ar      1 <0>        -0.1021
      3 C3          5.5063   -0.4470   -0.0944 C.ar      1 <0>        -0.0883
      4 C4          5.4426    0.9406    0.0369 C.ar      1 <0>        -0.0644
      5 C5          4.1851    1.5772    0.0852 C.ar      1 <0>        -0.0617
      6 C6          3.0220    0.8091    0.0069 C.ar      1 <0>        -0.0753
      7 C7          4.0996    3.0406    0.2169 C.2       1 <0>         0.2212
      8 N1          2.9451    3.6108    0.3898 N.2       1 <0>        -0.2822
      9 N2          2.8503    5.0085    0.4099 N.pl3     1 <0>        -0.3441
     10 C8          2.8580    5.8050    1.5400 C.2       1 <0>         0.3162
     11 N3          2.7551    7.0508    1.1689 N.2       1 <0>        -0.2466
     12 N4          2.6684    7.0814   -0.2296 N.pl3     1 <0>        -0.4714
     13 H1          2.5805    7.8744   -0.7813 H         1 <0>         0.4680
     14 C9          2.7298    5.8076   -0.6688 C.2       1 <0>         0.4731
     15 S1          2.6662    5.2978   -2.3019 S.2       1 <0>        -0.5745
     16 C10         2.9686    5.3249    2.9350 C.ar      1 <0>        -0.0162
     17 C11         2.1901    4.2521    3.3706 C.ar      1 <0>        -0.0656
     18 C12         2.2982    3.8088    4.6725 C.ar      1 <0>        -0.1052
     19 C13         3.1762    4.4255    5.5463 C.ar      1 <0>        -0.0875
     20 C14         3.9507    5.4898    5.1217 C.ar      1 <0>        -0.0936
     21 C15         3.8564    5.9396    3.8195 C.ar      1 <0>        -0.0502
     22 Br1         4.9218    7.3898    3.2381 Br        1 <0>        -0.0233
     23 C16         6.6811    1.7362    0.1184 C.2       1 <0>         0.4902
     24 O1          6.6237    2.9499    0.1322 O.co2     1 <0>        -0.6228
     25 H2          2.2062   -1.1524   -0.1772 H         1 <0>         0.1236
     26 H3          4.3982   -2.2613   -0.2626 H         1 <0>         0.1241
     27 H4          6.4652   -0.9420   -0.1367 H         1 <0>         0.1397
     28 H5          2.0549    1.2884    0.0427 H         1 <0>         0.1318
     29 H6          4.9965    3.6403    0.1697 H         1 <0>         0.1878
     30 H7          1.5041    3.7699    2.6900 H         1 <0>         0.1435
     31 H8          1.6962    2.9782    5.0105 H         1 <0>         0.1406
     32 H9          3.2568    4.0744    6.5645 H         1 <0>         0.1400
     33 H10         4.6336    5.9673    5.8088 H         1 <0>         0.1433
     34 O2          7.8768    1.1175    0.1775 O.co2     1 <0>        -0.7324
@<TRIPOS>BOND
     1    1    6 ar
     2    1    2 ar
     3    1   25 1
     4    2    3 ar
     5    2   26 1
     6    3    4 ar
     7    3   27 1
     8    4    5 ar
     9    4   23 1
    10    5    6 ar
    11    5    7 1
    12    6   28 1
    13    7    8 2
    14    7   29 1
    15    8    9 1
    16    9   14 1
    17    9   10 1
    18   10   11 2
    19   10   16 1
    20   11   12 1
    21   12   13 1
    22   12   14 1
    23   14   15 2
    24   16   21 ar
    25   16   17 ar
    26   17   18 ar
    27   17   30 1
    28   18   19 ar
    29   18   31 1
    30   19   20 ar
    31   19   32 1
    32   20   21 ar
    33   20   33 1
    34   21   22 1
    35   23   24 2
    36   23   34 1
@<TRIPOS>MOLECULE
ZINC13390138
   47    49     0     0     0
SMALL
USER_CHARGES
2-methyl-5-[(E)-3-oxo-3-[[4-(2,4,6-trimethylphenyl)thiazol-2-yl]amino]prop-1-enyl]furan-3-carboxylic acid
@<TRIPOS>ATOM
      1 C1         -6.5355    0.2389    0.4493 C.3       1 <0>        -0.1145
      2 C2         -5.0874    0.5914    0.2262 C.ar      1 <0>        -0.0750
      3 C3         -4.4147    1.3628    1.1568 C.ar      1 <0>        -0.1308
      4 C4         -3.0884    1.6883    0.9579 C.ar      1 <0>        -0.0458
      5 C5         -2.4267    1.2383   -0.1834 C.ar      1 <0>        -0.0288
      6 C6         -3.1111    0.4659   -1.1203 C.ar      1 <0>        -0.0584
      7 C7         -4.4358    0.1421   -0.9083 C.ar      1 <0>        -0.1296
      8 C8         -2.4042   -0.0196   -2.3595 C.3       1 <0>        -0.1155
      9 C9         -1.0016    1.5853   -0.4030 C.2       1 <0>         0.1237
     10 C10        -0.0865    0.6058   -0.6713 C.2       1 <0>        -0.2467
     11 S1          1.4023    1.5811   -0.8430 S.3       1 <0>         0.1130
     12 C11         0.6598    3.1777   -0.5355 C.2       1 <0>         0.3255
     13 N1         -0.6028    2.8469   -0.3371 N.2       1 <0>        -0.5333
     14 N2          1.2531    4.4321   -0.5114 N.am      1 <0>        -0.6093
     15 C12         2.5750    4.5569   -0.7427 C.2       1 <0>         0.5642
     16 O1          3.2488    3.5690   -0.9730 O.2       1 <0>        -0.5150
     17 C13         3.1802    5.8363   -0.7181 C.2       1 <0>        -0.2735
     18 C14         4.5099    5.9618   -0.9508 C.2       1 <0>         0.0867
     19 C15         5.1158    7.2429   -0.9261 C.2       1 <0>        -0.0808
     20 C16         6.4379    7.5022   -1.1432 C.2       1 <0>        -0.0772
     21 C17         6.6000    8.9053   -1.0238 C.2       1 <0>        -0.2165
     22 C18         5.3527    9.4200   -0.7382 C.2       1 <0>         0.0559
     23 O2          4.4806    8.4091   -0.6900 O.3       1 <0>        -0.1699
     24 C19         5.0277   10.8758   -0.5236 C.3       1 <0>        -0.0723
     25 C20         7.8538    9.6644   -1.1758 C.2       1 <0>         0.5162
     26 O3          7.8518   10.8728   -1.0472 O.co2     1 <0>        -0.6288
     27 C21        -2.3568    2.5283    1.9729 C.3       1 <0>        -0.1050
     28 H1         -7.1690    1.0054    0.0030 H         1 <0>         0.0703
     29 H2         -6.7503   -0.7245   -0.0130 H         1 <0>         0.0657
     30 H3         -6.7345    0.1809    1.5194 H         1 <0>         0.0658
     31 H4         -4.9285    1.7112    2.0406 H         1 <0>         0.1221
     32 H5         -4.9660   -0.4595   -1.6318 H         1 <0>         0.1227
     33 H6         -1.8705   -0.9431   -2.1351 H         1 <0>         0.0720
     34 H7         -3.1357   -0.2047   -3.1461 H         1 <0>         0.0656
     35 H8         -1.6951    0.7378   -2.6936 H         1 <0>         0.0682
     36 H9         -0.2252   -0.4616   -0.7598 H         1 <0>         0.1936
     37 H10         0.7165    5.2190   -0.3279 H         1 <0>         0.4274
     38 H11         2.5826    6.7124   -0.5139 H         1 <0>         0.1354
     39 H12         5.1074    5.0856   -1.1551 H         1 <0>         0.1595
     40 H13         7.2099    6.7796   -1.3624 H         1 <0>         0.1613
     41 H14         4.7632   11.3334   -1.4769 H         1 <0>         0.0830
     42 H15         4.1884   10.9628    0.1665 H         1 <0>         0.0673
     43 H16         5.8963   11.3841   -0.1051 H         1 <0>         0.1143
     44 H17        -2.3824    3.5738    1.6656 H         1 <0>         0.0766
     45 H18        -2.8376    2.4236    2.9456 H         1 <0>         0.0597
     46 H19        -1.3213    2.1950    2.0418 H         1 <0>         0.0619
     47 O4          9.0025    9.0187   -1.4573 O.co2     1 <0>        -0.7510
@<TRIPOS>BOND
     1    1    2 1
     2    1   28 1
     3    1   29 1
     4    1   30 1
     5    2    7 ar
     6    2    3 ar
     7    3    4 ar
     8    3   31 1
     9    4    5 ar
    10    4   27 1
    11    5    6 ar
    12    5    9 1
    13    6    7 ar
    14    6    8 1
    15    7   32 1
    16    8   33 1
    17    8   34 1
    18    8   35 1
    19    9   13 1
    20    9   10 2
    21   10   11 1
    22   10   36 1
    23   11   12 1
    24   12   13 2
    25   12   14 1
    26   14   15 am
    27   14   37 1
    28   15   16 2
    29   15   17 1
    30   17   18 2
    31   17   38 1
    32   18   19 1
    33   18   39 1
    34   19   23 1
    35   19   20 2
    36   20   21 1
    37   20   40 1
    38   21   22 2
    39   21   25 1
    40   22   23 1
    41   22   24 1
    42   24   41 1
    43   24   42 1
    44   24   43 1
    45   25   26 2
    46   25   47 1
    47   27   44 1
    48   27   45 1
    49   27   46 1
@<TRIPOS>MOLECULE
ZINC31258826
   48    51     0     0     0
SMALL
USER_CHARGES
N-[(S)-cyclopropyl-(4-methoxyphenyl)methyl]-3-methyl-4-oxo-2-sulfanyl-quinazoline-7-carboxamide
@<TRIPOS>ATOM
      1 C1          4.6004    8.8387    5.0537 C.3       1 <0>         0.0773
      2 N1          4.0612    7.8921    4.0742 N.pl3     1 <0>        -0.5397
      3 C2          2.7454    7.9267    3.7615 C.2       1 <0>         0.5473
      4 O1          1.9950    8.7329    4.2795 O.3       1 <0>        -0.5420
      5 C3          2.2546    6.9548    2.7716 C.ar      1 <0>        -0.2249
      6 C4          0.9150    6.9149    2.3866 C.ar      1 <0>        -0.0282
      7 C5          0.4992    5.9973    1.4651 C.ar      1 <0>        -0.1588
      8 C6          1.4067    5.0924    0.9001 C.ar      1 <0>        -0.0892
      9 C7          2.7444    5.1108    1.2727 C.ar      1 <0>        -0.0689
     10 C8          3.1833    6.0489    2.2113 C.ar      1 <0>         0.2009
     11 N2          4.4786    6.1065    2.6009 N.2       1 <0>        -0.5596
     12 C9          4.8908    6.9817    3.4845 C.2       1 <0>         0.5330
     13 S1          6.5949    6.9844    3.9324 S.2       1 <0>        -0.7629
     14 C10         0.9353    4.1049   -0.0972 C.2       1 <0>         0.5674
     15 O2          1.7189    3.3177   -0.5903 O.2       1 <0>        -0.5321
     16 N3         -0.3630    4.0790   -0.4583 N.am      1 <0>        -0.7363
     17 C11        -0.8295    3.1019   -1.4452 C.3       1 <0>         0.1988
     18 H1         -0.0276    2.9706   -2.1867 H         1 <0>         0.0934
     19 C12        -2.0700    3.6249   -2.1223 C.ar      1 <0>        -0.1217
     20 C13        -3.0337    4.2853   -1.3827 C.ar      1 <0>        -0.0696
     21 C14        -4.1691    4.7707   -2.0021 C.ar      1 <0>        -0.2033
     22 C15        -4.3476    4.5846   -3.3652 C.ar      1 <0>         0.1260
     23 C16        -3.3818    3.9168   -4.1041 C.ar      1 <0>        -0.1474
     24 C17        -2.2453    3.4387   -3.4811 C.ar      1 <0>        -0.0693
     25 O3         -5.4667    5.0555   -3.9757 O.3       1 <0>        -0.3183
     26 C18        -6.4183    5.7332   -3.1527 C.3       1 <0>         0.0234
     27 C19        -1.1502    1.7810   -0.7428 C.3       1 <0>        -0.2565
     28 C20        -0.0127    1.0858    0.0080 C.3       1 <0>        -0.1369
     29 C21        -1.1356    1.7728    0.7878 C.3       1 <0>        -0.1205
     30 H2          3.7918    9.4891    5.4186 H         1 <0>         0.0819
     31 H3          5.3795    9.4533    4.5792 H         1 <0>         0.0801
     32 H4          5.0347    8.2843    5.8987 H         1 <0>         0.0803
     33 H5          0.2076    7.6083    2.8169 H         1 <0>         0.1307
     34 H6         -0.5390    5.9691    1.1688 H         1 <0>         0.1185
     35 H7          3.4405    4.4088    0.8379 H         1 <0>         0.1448
     36 H8         -1.0723    4.7915   -0.0120 H         1 <0>         0.4143
     37 H9         -2.8967    4.4254   -0.3206 H         1 <0>         0.1245
     38 H10        -4.9193    5.2906   -1.4248 H         1 <0>         0.1296
     39 H11        -3.5186    3.7704   -5.1653 H         1 <0>         0.1318
     40 H12        -1.4932    2.9187   -4.0558 H         1 <0>         0.1318
     41 H13        -7.2691    6.0598   -3.7687 H         1 <0>         0.1013
     42 H14        -5.9432    6.6103   -2.6890 H         1 <0>         0.0575
     43 H15        -6.7750    5.0511   -2.3669 H         1 <0>         0.0566
     44 H16        -1.8716    1.4785   -1.5162 H         1 <0>         0.1199
     45 H17         0.0083    0.0200   -0.2635 H         1 <0>         0.0930
     46 H18         0.9455    1.5525   -0.2643 H         1 <0>         0.1298
     47 H19        -1.1059    2.8076    1.1597 H         1 <0>         0.1003
     48 H20        -2.0430    1.2751    1.1605 H         1 <0>         0.0919
@<TRIPOS>BOND
     1    1    2 1
     2    1   30 1
     3    1   31 1
     4    1   32 1
     5    2   12 1
     6    2    3 1
     7    3    4 1
     8    3    5 2
     9    5   10 ar
    10    5    6 ar
    11    6    7 ar
    12    6   33 1
    13    7    8 ar
    14    7   34 1
    15    8    9 ar
    16    8   14 1
    17    9   10 ar
    18    9   35 1
    19   10   11 2
    20   11   12 1
    21   12   13 2
    22   14   15 2
    23   14   16 am
    24   16   17 1
    25   16   36 1
    26   17   18 1
    27   17   19 1
    28   17   27 1
    29   19   24 ar
    30   19   20 ar
    31   20   21 ar
    32   20   37 1
    33   21   22 ar
    34   21   38 1
    35   22   23 ar
    36   22   25 1
    37   23   24 ar
    38   23   39 1
    39   24   40 1
    40   25   26 1
    41   26   41 1
    42   26   42 1
    43   26   43 1
    44   27   29 1
    45   27   28 1
    46   27   44 1
    47   28   29 1
    48   28   45 1
    49   28   46 1
    50   29   47 1
    51   29   48 1
@<TRIPOS>MOLECULE
ZINC40124834
   52    55     0     0     0
SMALL
USER_CHARGES

@<TRIPOS>ATOM
      1 C1          0.0542    1.5428    0.0457 C.3       1 <0>        -0.1366
      2 C2          0.0566    0.0129    0.0309 C.3       1 <0>        -0.0273
      3 C3          0.7971   -0.5079    1.2644 C.3       1 <0>        -0.1383
      4 C4         -1.3849   -0.4996    0.0473 C.3       1 <0>        -0.1418
      5 C5          0.7496   -0.4763   -1.2147 C.ar      1 <0>        -0.0812
      6 C6          0.0640   -1.2587   -2.1251 C.ar      1 <0>        -0.1235
      7 C7          0.6996   -1.7075   -3.2676 C.ar      1 <0>        -0.1138
      8 C8          2.0207   -1.3734   -3.5001 C.ar      1 <0>        -0.0778
      9 C9          2.7060   -0.5903   -2.5902 C.ar      1 <0>        -0.0872
     10 C10         2.0691   -0.1380   -1.4497 C.ar      1 <0>        -0.1164
     11 C11         2.7139   -1.8635   -4.7452 C.3       1 <0>         0.2624
     12 H1          1.9795   -2.2241   -5.4654 H         1 <0>         0.0745
     13 C12         3.6867   -2.9663   -4.3985 C.2       1 <0>        -0.5009
     14 C13         4.9150   -2.5331   -4.7654 C.2       1 <0>         0.2678
     15 C14         4.7995   -1.1797   -5.3454 C.2       1 <0>         0.5144
     16 O1          5.7286   -0.5212   -5.7693 O.2       1 <0>        -0.5390
     17 N1          3.5125   -0.7833   -5.3366 N.am      1 <0>        -0.7208
     18 O2          6.0669   -3.2295   -4.6231 O.3       1 <0>        -0.6513
     19 C15         3.3623   -4.2574   -3.7821 C.2       1 <0>         0.5401
     20 O3          3.7730   -4.5197   -2.6659 O.2       1 <0>        -0.4443
     21 C16         2.5419   -5.2339   -4.5112 C.2       1 <0>         0.0080
     22 C17         2.0964   -6.4165   -4.0055 C.2       1 <0>        -0.1649
     23 C18         1.3277   -7.0499   -5.0750 C.ar      1 <0>        -0.0980
     24 C19         0.6256   -8.2545   -5.1880 C.ar      1 <0>        -0.1044
     25 C20        -0.0064   -8.5646   -6.3584 C.ar      1 <0>        -0.1019
     26 C21         0.0424   -7.6931   -7.4379 C.ar      1 <0>        -0.1959
     27 C22         0.7308   -6.4974   -7.3489 C.ar      1 <0>         0.1455
     28 C23         1.3829   -6.1606   -6.1632 C.ar      1 <0>         0.0334
     29 O4          2.1109   -5.0921   -5.7816 O.3       1 <0>        -0.1521
     30 O5          0.7718   -5.6529   -8.4137 O.3       1 <0>        -0.3095
     31 C24         0.0808   -6.0643   -9.5949 C.3       1 <0>         0.0274
     32 H2          1.0812    1.9079    0.0341 H         1 <0>         0.0565
     33 H3         -0.4733    1.9138   -0.8330 H         1 <0>         0.0547
     34 H4         -0.4470    1.8966    0.9466 H         1 <0>         0.0538
     35 H5          0.2959   -0.1541    2.1653 H         1 <0>         0.0537
     36 H6          0.7988   -1.5979    1.2538 H         1 <0>         0.0570
     37 H7          1.8241   -0.1428    1.2527 H         1 <0>         0.0572
     38 H8         -1.9124   -0.1286   -0.8315 H         1 <0>         0.0572
     39 H9         -1.3832   -1.5896    0.0367 H         1 <0>         0.0584
     40 H10        -1.8861   -0.1458    0.9482 H         1 <0>         0.0537
     41 H11        -0.9682   -1.5197   -1.9434 H         1 <0>         0.1204
     42 H12         0.1642   -2.3193   -3.9785 H         1 <0>         0.1170
     43 H13         3.7383   -0.3296   -2.7717 H         1 <0>         0.1174
     44 H14         2.6034    0.4769   -0.7407 H         1 <0>         0.1151
     45 H15         3.1730    0.0648   -5.6628 H         1 <0>         0.4071
     46 H16         2.2750   -6.8076   -3.0148 H         1 <0>         0.1671
     47 H17         0.5837   -8.9374   -4.3524 H         1 <0>         0.1289
     48 H18        -0.5480   -9.4950   -6.4448 H         1 <0>         0.1293
     49 H19        -0.4622   -7.9520   -8.3570 H         1 <0>         0.1369
     50 H20         0.4991   -7.0056   -9.9514 H         1 <0>         0.0559
     51 H21        -0.9769   -6.1992   -9.3687 H         1 <0>         0.0555
     52 H22         0.1931   -5.3018  -10.3656 H         1 <0>         0.1007
@<TRIPOS>BOND
     1    1    2 1
     2    1   32 1
     3    1   33 1
     4    1   34 1
     5    2    3 1
     6    2    4 1
     7    2    5 1
     8    3   35 1
     9    3   36 1
    10    3   37 1
    11    4   38 1
    12    4   39 1
    13    4   40 1
    14    5   10 ar
    15    5    6 ar
    16    6    7 ar
    17    6   41 1
    18    7    8 ar
    19    7   42 1
    20    8    9 ar
    21    8   11 1
    22    9   10 ar
    23    9   43 1
    24   10   44 1
    25   11   12 1
    26   11   17 1
    27   11   13 1
    28   13   14 2
    29   13   19 1
    30   14   15 1
    31   14   18 1
    32   15   16 2
    33   15   17 am
    34   17   45 1
    35   19   20 2
    36   19   21 1
    37   21   29 1
    38   21   22 2
    39   22   23 1
    40   22   46 1
    41   23   28 ar
    42   23   24 ar
    43   24   25 ar
    44   24   47 1
    45   25   26 ar
    46   25   48 1
    47   26   27 ar
    48   26   49 1
    49   27   28 ar
    50   27   30 1
    51   28   29 1
    52   30   31 1
    53   31   50 1
    54   31   51 1
    55   31   52 1
@<TRIPOS>MOLECULE
ZINC62825610
   33    33     0     0     0
SMALL
USER_CHARGES

@<TRIPOS>ATOM
      1 C1         -0.0565    1.1902   -0.9882 C.3       1 <0>        -0.1849
      2 C2         -0.0061   -0.0882   -0.1493 C.3       1 <0>         0.1131
      3 N1          0.7544    0.1624    1.0775 N.am      1 <0>        -0.6233
      4 C3          0.0667    0.6336    2.2822 C.3       1 <0>         0.1434
      5 C4         -0.3870   -0.5681    3.1135 C.3       1 <0>        -0.0466
      6 C5         -1.0779   -0.0946    4.3239 C.1       1 <0>         0.2159
      7 N2         -1.6112    0.2708    5.2581 N.1       1 <0>        -0.4420
      8 C6          2.0866   -0.0406    1.0979 C.2       1 <0>         0.7088
      9 O1          2.7177    0.1674    2.1160 O.2       1 <0>        -0.5674
     10 N3          2.7193   -0.4741   -0.0104 N.am      1 <0>        -0.6559
     11 C7          4.1075   -0.5776   -0.0240 C.ar      1 <0>         0.2320
     12 C8          4.8536    0.0678   -1.0235 C.ar      1 <0>        -0.1400
     13 C9          6.2477   -0.0440   -1.0252 C.ar      1 <0>        -0.0309
     14 C10         6.8790   -0.7844   -0.0491 C.ar      1 <0>        -0.1090
     15 C11         6.1390   -1.4206    0.9360 C.ar      1 <0>        -0.0592
     16 C12         4.7622   -1.3150    0.9544 C.ar      1 <0>        -0.0960
     17 Br1         3.7665   -2.1816    2.3084 Br        1 <0>        -0.0329
     18 Br2         8.7641   -0.9340   -0.0535 Br        1 <0>        -0.0592
     19 C13         4.1729    0.8562   -2.0627 C.2       1 <0>         0.5281
     20 O2          4.8156    1.3324   -2.9885 O.co2     1 <0>        -0.6758
     21 O3          2.9642    1.0355   -2.0011 O.co2     1 <0>        -0.6708
     22 H1          0.9576    1.4962   -1.2455 H         1 <0>         0.1008
     23 H2         -0.6223    1.0038   -1.9010 H         1 <0>         0.0596
     24 H3         -0.5406    1.9815   -0.4159 H         1 <0>         0.0471
     25 H4         -1.0201   -0.3942    0.1079 H         1 <0>         0.0745
     26 H5          0.4781   -0.8795   -0.7216 H         1 <0>         0.0726
     27 H6          0.7472    1.2475    2.8724 H         1 <0>         0.0932
     28 H7         -0.8021    1.2264    1.9962 H         1 <0>         0.0843
     29 H8         -1.0674   -1.1820    2.5233 H         1 <0>         0.1086
     30 H9          0.4818   -1.1609    3.3995 H         1 <0>         0.1128
     31 H10         2.2073   -0.7140   -0.7986 H         1 <0>         0.4171
     32 H11         6.8288    0.4490   -1.7905 H         1 <0>         0.1458
     33 H12         6.6429   -1.9991    1.6961 H         1 <0>         0.1363
@<TRIPOS>BOND
     1    1    2 1
     2    1   22 1
     3    1   23 1
     4    1   24 1
     5    2    3 1
     6    2   25 1
     7    2   26 1
     8    3    4 1
     9    3    8 am
    10    4    5 1
    11    4   27 1
    12    4   28 1
    13    5    6 1
    14    5   29 1
    15    5   30 1
    16    6    7 3
    17    8    9 2
    18    8   10 am
    19   10   11 1
    20   10   31 1
    21   11   16 ar
    22   11   12 ar
    23   12   13 ar
    24   12   19 1
    25   13   14 ar
    26   13   32 1
    27   14   15 ar
    28   14   18 1
    29   15   16 ar
    30   15   33 1
    31   16   17 1
    32   19   20 2
    33   19   21 1
@<TRIPOS>MOLECULE
ZINC04177491
   42    44     0     0     0
SMALL
USER_CHARGES
2-(2-chloro-5-nitro-benzoyl)amino-5-methyl-4,5,6,7-tetrahydrobenzothiophene-3-carboxamide
@<TRIPOS>ATOM
      1 C1          3.7509    1.9725   -0.3072 C.3       1 <0>        -0.1486
      2 C2          2.4167    1.2420   -0.4721 C.3       1 <0>        -0.0916
      3 H1          2.2689    0.9935   -1.5231 H         1 <0>         0.0752
      4 C3          2.4355   -0.0452    0.3573 C.3       1 <0>        -0.1095
      5 C4          1.2088   -0.8909   -0.0143 C.3       1 <0>        -0.0370
      6 C5          0.0021   -0.0041    0.0020 C.2       1 <0>        -0.2027
      7 C6         -0.0162    1.3466    0.0094 C.2       1 <0>        -0.0663
      8 C7         -1.3390    1.9473    0.0314 C.2       1 <0>        -0.2180
      9 C8         -2.4321    1.0918    0.0317 C.2       1 <0>         0.0649
     10 S1         -1.7031   -0.4799    0.0158 S.3       1 <0>         0.2362
     11 N1         -3.7790    1.4160    0.0468 N.am      1 <0>        -0.6135
     12 C9         -4.7073    0.4389    0.0509 C.2       1 <0>         0.5556
     13 O1         -4.3627   -0.7269    0.0415 O.2       1 <0>        -0.4639
     14 C10        -6.1433    0.7845    0.0670 C.ar      1 <0>        -0.1295
     15 C11        -6.5428    2.1226    0.0778 C.ar      1 <0>        -0.0105
     16 C12        -7.8850    2.4383    0.0923 C.ar      1 <0>        -0.0470
     17 C13        -8.8365    1.4329    0.0956 C.ar      1 <0>        -0.0110
     18 C14        -8.4495    0.1055    0.0854 C.ar      1 <0>        -0.1120
     19 C15        -7.1085   -0.2258    0.0655 C.ar      1 <0>         0.0602
     20 Cl1        -6.6239   -1.8926    0.0448 Cl        1 <0>         0.0130
     21 N2         -8.3096    3.8563    0.1039 N.pl3     1 <0>         0.0247
     22 O2         -7.4738    4.7423    0.1006 O.2       1 <0>        -0.1480
     23 O3         -9.4947    4.1371    0.1166 O.3       1 <0>        -0.1399
     24 C16        -1.5128    3.4030    0.0420 C.2       1 <0>         0.5813
     25 O4         -1.5998    4.0131   -1.0076 O.2       1 <0>        -0.5300
     26 N3         -1.5763    4.0656    1.2139 N.am      1 <0>        -0.8470
     27 C17         1.2791    2.1489    0.0014 C.3       1 <0>        -0.0557
     28 H2          4.5617    1.3300   -0.6506 H         1 <0>         0.0587
     29 H3          3.7388    2.8889   -0.8971 H         1 <0>         0.0564
     30 H4          3.9028    2.2188    0.7437 H         1 <0>         0.0560
     31 H5          2.4003    0.2031    1.4181 H         1 <0>         0.0688
     32 H6          3.3449   -0.6059    0.1412 H         1 <0>         0.0755
     33 H7          1.0835   -1.6948    0.7111 H         1 <0>         0.0827
     34 H8          1.3414   -1.3122   -1.0108 H         1 <0>         0.0840
     35 H9         -4.0539    2.3462    0.0543 H         1 <0>         0.4180
     36 H10        -5.8021    2.9085    0.0746 H         1 <0>         0.1622
     37 H11        -9.8863    1.6866    0.1066 H         1 <0>         0.1737
     38 H12        -9.1972   -0.6739    0.0887 H         1 <0>         0.1716
     39 H13        -1.5070    3.5794    2.0503 H         1 <0>         0.4036
     40 H14        -1.6913    5.0288    1.2208 H         1 <0>         0.4051
     41 H15         1.1805    2.9952   -0.6785 H         1 <0>         0.0761
     42 H16         1.4921    2.5091    1.0079 H         1 <0>         0.0781
@<TRIPOS>BOND
     1    1    2 1
     2    1   28 1
     3    1   29 1
     4    1   30 1
     5    2    3 1
     6    2   27 1
     7    2    4 1
     8    4    5 1
     9    4   31 1
    10    4   32 1
    11    5    6 1
    12    5   33 1
    13    5   34 1
    14    6   10 1
    15    6    7 2
    16    7    8 1
    17    7   27 1
    18    8    9 2
    19    8   24 1
    20    9   10 1
    21    9   11 1
    22   11   12 am
    23   11   35 1
    24   12   13 2
    25   12   14 1
    26   14   19 ar
    27   14   15 ar
    28   15   16 ar
    29   15   36 1
    30   16   17 ar
    31   16   21 1
    32   17   18 ar
    33   17   37 1
    34   18   19 ar
    35   18   38 1
    36   19   20 1
    37   21   22 2
    38   21   23 1
    39   24   25 2
    40   24   26 am
    41   26   39 1
    42   26   40 1
    43   27   41 1
    44   27   42 1
@<TRIPOS>MOLECULE
ZINC28686561
   48    50     0     0     0
SMALL
USER_CHARGES
N-(4-tert-butylphenyl)-2,4-dioxo-1,5-dihydro-1,5-benzodiazepine-7-sulfonamide
@<TRIPOS>ATOM
      1 C1          5.0999    2.8245   -7.3508 C.3       1 <0>        -0.1416
      2 C2          4.5707    3.9252   -6.4292 C.3       1 <0>        -0.0319
      3 C3          3.0437    3.9702   -6.5131 C.3       1 <0>        -0.1492
      4 C4          5.1454    5.2748   -6.8644 C.3       1 <0>        -0.1413
      5 C5          4.9876    3.6358   -5.0102 C.ar      1 <0>        -0.0577
      6 C6          6.3299    3.5473   -4.6900 C.ar      1 <0>        -0.1106
      7 C7          6.7154    3.2826   -3.3905 C.ar      1 <0>        -0.1086
      8 C8          5.7530    3.1052   -2.4046 C.ar      1 <0>         0.1174
      9 C9          4.4053    3.1896   -2.7308 C.ar      1 <0>        -0.1007
     10 C10         4.0269    3.4597   -4.0313 C.ar      1 <0>        -0.1135
     11 N1          6.1393    2.8369   -1.0895 N.pl3     1 <0>        -1.0744
     12 S1          6.0444    4.0251    0.0601 S.o2      1 <0>         2.6932
     13 O1          6.5770    3.4752    1.2574 O.2       1 <0>        -0.9509
     14 O2          4.7293    4.5581   -0.0143 O.2       1 <0>        -0.9442
     15 C11         7.1392    5.3149   -0.4322 C.ar      1 <0>        -0.6664
     16 C12         6.6573    6.3988   -1.1435 C.ar      1 <0>        -0.0036
     17 C13         7.5166    7.4058   -1.5259 C.ar      1 <0>        -0.1370
     18 C14         8.8745    7.3465   -1.2036 C.ar      1 <0>         0.1935
     19 C15         9.3574    6.2605   -0.4916 C.ar      1 <0>         0.1124
     20 C16         8.4769    5.2459   -0.1087 C.ar      1 <0>        -0.0119
     21 N2         10.6909    6.1073   -0.1244 N.am      1 <0>        -0.6750
     22 C17        11.4842    7.0724    0.3338 C.2       1 <0>         0.5269
     23 O3         12.6218    6.8041    0.6580 O.2       1 <0>        -0.5120
     24 C18        10.9956    8.4925    0.4570 C.3       1 <0>        -0.1716
     25 C19        10.6354    8.9849   -0.9213 C.2       1 <0>         0.5294
     26 O4         11.2360    9.9277   -1.3920 O.2       1 <0>        -0.5079
     27 N3          9.6686    8.4068   -1.6300 N.am      1 <0>        -0.6781
     28 H1          6.1978    2.7922   -7.2905 H         1 <0>         0.0575
     29 H2          4.7956    3.0358   -8.3866 H         1 <0>         0.0609
     30 H3          4.6867    1.8542   -7.0379 H         1 <0>         0.0580
     31 H4          2.6633    4.7616   -5.8505 H         1 <0>         0.0611
     32 H5          2.6306    2.9999   -6.2002 H         1 <0>         0.0607
     33 H6          2.7395    4.1815   -7.5489 H         1 <0>         0.0607
     34 H7          4.7649    6.0661   -6.2018 H         1 <0>         0.0580
     35 H8          4.8411    5.4860   -7.9002 H         1 <0>         0.0609
     36 H9          6.2433    5.2424   -6.8041 H         1 <0>         0.0572
     37 H10         7.0776    3.6849   -5.4570 H         1 <0>         0.1256
     38 H11         7.7639    3.2139   -3.1410 H         1 <0>         0.1259
     39 H12         3.6545    3.0478   -1.9676 H         1 <0>         0.1343
     40 H13         2.9794    3.5295   -4.2847 H         1 <0>         0.1340
     41 H14         6.5066    1.8364   -0.8174 H         1 <0>         0.4525
     42 H15         5.6094    6.4559   -1.3985 H         1 <0>         0.1521
     43 H16         7.1361    8.2503   -2.0813 H         1 <0>         0.1469
     44 H17         8.8487    4.3978    0.4471 H         1 <0>         0.1516
     45 H18        11.1732    5.1218   -0.2027 H         1 <0>         0.4411
     46 H19        10.1126    8.5209    1.1124 H         1 <0>         0.1271
     47 H20        11.7916    9.1182    0.8870 H         1 <0>         0.1453
     48 H21         9.5206    8.8367   -2.6316 H         1 <0>         0.4436
@<TRIPOS>BOND
     1    1    2 1
     2    1   28 1
     3    1   29 1
     4    1   30 1
     5    2    3 1
     6    2    4 1
     7    2    5 1
     8    3   31 1
     9    3   32 1
    10    3   33 1
    11    4   34 1
    12    4   35 1
    13    4   36 1
    14    5   10 ar
    15    5    6 ar
    16    6    7 ar
    17    6   37 1
    18    7    8 ar
    19    7   38 1
    20    8    9 ar
    21    8   11 1
    22    9   10 ar
    23    9   39 1
    24   10   40 1
    25   11   12 1
    26   11   41 1
    27   12   13 2
    28   12   14 2
    29   12   15 1
    30   15   20 ar
    31   15   16 ar
    32   16   17 ar
    33   16   42 1
    34   17   18 ar
    35   17   43 1
    36   18   27 1
    37   18   19 ar
    38   19   20 ar
    39   19   21 1
    40   20   44 1
    41   21   22 am
    42   21   45 1
    43   22   23 2
    44   22   24 1
    45   24   25 1
    46   24   46 1
    47   24   47 1
    48   25   26 2
    49   25   27 am
    50   27   48 1
@<TRIPOS>MOLECULE
ZINC01065976
   51    53     0     0     0
SMALL
USER_CHARGES

@<TRIPOS>ATOM
      1 C1          2.3786   -0.7586   -3.4784 C.3       1 <0>        -0.1520
      2 C2          1.6417   -1.9955   -2.9606 C.3       1 <0>         0.0527
      3 O1          1.0331   -2.6810   -4.0568 O.3       1 <0>        -0.3039
      4 C3          0.3336   -3.8107   -3.7668 C.ar      1 <0>         0.1078
      5 C4          0.2307   -4.2462   -2.4554 C.ar      1 <0>        -0.1667
      6 C5         -0.4811   -5.3945   -2.1623 C.ar      1 <0>        -0.0634
      7 C6         -1.0910   -6.1109   -3.1753 C.ar      1 <0>        -0.0972
      8 C7         -0.9918   -5.6821   -4.4858 C.ar      1 <0>        -0.1690
      9 C8         -0.2851   -4.5286   -4.7857 C.ar      1 <0>         0.0979
     10 O2         -0.1916   -4.1021   -6.0737 O.3       1 <0>        -0.3063
     11 C9         -0.8518   -4.8890   -7.0672 C.3       1 <0>         0.0265
     12 C10        -0.5920   -5.8667   -0.7355 C.3       1 <0>         0.1207
     13 H1         -0.2958   -5.0651   -0.0589 H         1 <0>         0.0993
     14 C11        -2.0122   -6.2783   -0.4451 C.2       1 <0>        -0.2569
     15 C12        -3.1410   -5.4868   -0.2814 C.2       1 <0>         0.1369
     16 N1         -4.1615   -6.2765   -0.0448 N.2       1 <0>        -0.2575
     17 N2         -3.7059   -7.6042   -0.0516 N.pl3     1 <0>        -0.4482
     18 H2         -4.2481   -8.3949    0.0950 H         1 <0>         0.4462
     19 C13        -2.3861   -7.5850   -0.2977 C.2       1 <0>         0.2722
     20 O3         -1.5079   -8.6137   -0.3977 O.3       1 <0>        -0.2310
     21 C14        -0.1928   -8.3163   -0.3767 C.2       1 <0>         0.4398
     22 C15         0.2991   -7.0654   -0.5254 C.2       1 <0>        -0.2569
     23 C16         1.7171   -6.8710   -0.4809 C.1       1 <0>         0.2702
     24 N3          2.8421   -6.7168   -0.4456 N.1       1 <0>        -0.4376
     25 N4          0.6993   -9.3437   -0.1946 N.pl3     1 <0>        -0.8313
     26 C17        -3.1860   -3.9825   -0.3609 C.3       1 <0>         0.0129
     27 C18        -2.8837   -3.5383   -1.7935 C.3       1 <0>        -0.1545
     28 C19        -4.5780   -3.4919    0.0421 C.3       1 <0>        -0.1395
     29 C20        -2.1420   -3.3902    0.5877 C.3       1 <0>        -0.1454
     30 H3          3.1475   -1.0643   -4.1879 H         1 <0>         0.0660
     31 H4          1.6702   -0.0947   -3.9740 H         1 <0>         0.0669
     32 H5          2.8428   -0.2357   -2.6423 H         1 <0>         0.0781
     33 H6          2.3500   -2.6594   -2.4650 H         1 <0>         0.0602
     34 H7          0.8727   -1.6898   -2.2511 H         1 <0>         0.0624
     35 H8          0.7068   -3.6888   -1.6623 H         1 <0>         0.1339
     36 H9         -1.6459   -7.0077   -2.9423 H         1 <0>         0.1177
     37 H10        -1.4689   -6.2438   -5.2753 H         1 <0>         0.1330
     38 H11        -0.4417   -5.8988   -7.0625 H         1 <0>         0.0537
     39 H12        -1.9190   -4.9292   -6.8487 H         1 <0>         0.0545
     40 H13        -0.6985   -4.4390   -8.0480 H         1 <0>         0.1000
     41 H14         0.3772  -10.2521   -0.0857 H         1 <0>         0.4112
     42 H15         1.6518   -9.1612   -0.1750 H         1 <0>         0.4278
     43 H16        -3.5281   -4.0804   -2.4856 H         1 <0>         0.0555
     44 H17        -3.0673   -2.4681   -1.8884 H         1 <0>         0.0623
     45 H18        -1.8403   -3.7501   -2.0270 H         1 <0>         0.0790
     46 H19        -4.7934   -3.8084    1.0627 H         1 <0>         0.0588
     47 H20        -4.6106   -2.4039   -0.0154 H         1 <0>         0.0613
     48 H21        -5.3218   -3.9139   -0.6337 H         1 <0>         0.0611
     49 H22        -1.1428   -3.6269    0.2220 H         1 <0>         0.0634
     50 H23        -2.2652   -2.3081    0.6337 H         1 <0>         0.0677
     51 H24        -2.2741   -3.8135    1.5835 H         1 <0>         0.0595
@<TRIPOS>BOND
     1    1    2 1
     2    1   30 1
     3    1   31 1
     4    1   32 1
     5    2    3 1
     6    2   33 1
     7    2   34 1
     8    3    4 1
     9    4    9 ar
    10    4    5 ar
    11    5    6 ar
    12    5   35 1
    13    6    7 ar
    14    6   12 1
    15    7    8 ar
    16    7   36 1
    17    8    9 ar
    18    8   37 1
    19    9   10 1
    20   10   11 1
    21   11   38 1
    22   11   39 1
    23   11   40 1
    24   12   13 1
    25   12   22 1
    26   12   14 1
    27   14   19 2
    28   14   15 1
    29   15   16 2
    30   15   26 1
    31   16   17 1
    32   17   18 1
    33   17   19 1
    34   19   20 1
    35   20   21 1
    36   21   22 2
    37   21   25 1
    38   22   23 1
    39   23   24 3
    40   25   41 1
    41   25   42 1
    42   26   27 1
    43   26   28 1
    44   26   29 1
    45   27   43 1
    46   27   44 1
    47   27   45 1
    48   28   46 1
    49   28   47 1
    50   28   48 1
    51   29   49 1
    52   29   50 1
    53   29   51 1
@<TRIPOS>MOLECULE
ZINC07449741
   38    40     0     0     0
SMALL
USER_CHARGES

@<TRIPOS>ATOM
      1 C1         -0.0385    1.5437    0.0118 C.3       1 <0>        -0.1472
      2 C2         -0.0053    0.0141    0.0049 C.3       1 <0>        -0.1199
      3 H1          0.5093   -0.3341   -0.8907 H         1 <0>         0.1283
      4 C3         -1.4148   -0.5191    0.0137 C.2       1 <0>         0.5450
      5 O1         -1.9413   -0.8238    1.0630 O.2       1 <0>        -0.4960
      6 N1         -2.0902   -0.6573   -1.1443 N.am      1 <0>        -0.6614
      7 C4         -3.3645   -1.2393   -1.1468 C.ar      1 <0>         0.1179
      8 C5         -4.2254   -1.0328   -0.0778 C.ar      1 <0>        -0.0814
      9 C6         -5.4816   -1.6074   -0.0825 C.ar      1 <0>        -0.0979
     10 C7         -5.8832   -2.3892   -1.1515 C.ar      1 <0>        -0.0212
     11 C8         -5.0282   -2.5977   -2.2193 C.ar      1 <0>        -0.1273
     12 C9         -3.7715   -2.0204   -2.2228 C.ar      1 <0>         0.0905
     13 F1         -2.9386   -2.2191   -3.2677 F         1 <0>        -0.1276
     14 Cl1        -7.4624   -3.1101   -1.1525 Cl        1 <0>        -0.0511
     15 S1          0.8745   -0.5783    1.4765 S.3       1 <0>         0.1136
     16 C10         2.5239   -0.0021    1.2478 C.2       1 <0>         0.1826
     17 N2          2.9699    0.6999    0.2305 N.2       1 <0>        -0.2820
     18 N3          4.2210    0.9518    0.3809 N.2       1 <0>        -0.2348
     19 C11         4.6525    0.4252    1.5061 C.2       1 <0>         0.2298
     20 N4          3.5757   -0.1973    2.0986 N.pl3     1 <0>        -0.2997
     21 N5          3.5627   -0.8715    3.2865 N.3       1 <0>        -0.5783
     22 C12         6.0237    0.4932    2.0348 C.2       1 <0>         0.0250
     23 C13         7.0024    1.3428    1.6138 C.2       1 <0>        -0.1236
     24 C14         8.1434    1.0631    2.3904 C.2       1 <0>        -0.2099
     25 C15         7.8115    0.0689    3.2378 C.2       1 <0>        -0.0085
     26 O2          6.5292   -0.2697    3.0241 O.3       1 <0>        -0.1838
     27 H2          0.9810    1.9293    0.0054 H         1 <0>         0.0908
     28 H3         -0.5672    1.8996   -0.8725 H         1 <0>         0.0757
     29 H4         -0.5531    1.8919    0.9074 H         1 <0>         0.0770
     30 H5         -1.6941   -0.3537   -1.9761 H         1 <0>         0.4199
     31 H6         -3.9131   -0.4236    0.7575 H         1 <0>         0.1610
     32 H7         -6.1513   -1.4466    0.7494 H         1 <0>         0.1474
     33 H8         -5.3439   -3.2085   -3.0522 H         1 <0>         0.1528
     34 H9          3.7761   -1.8482    3.1503 H         1 <0>         0.3704
     35 H10         4.1986   -0.4513    3.9477 H         1 <0>         0.3817
     36 H11         6.9192    2.0865    0.8351 H         1 <0>         0.1646
     37 H12         9.1035    1.5527    2.3200 H         1 <0>         0.1622
     38 H13         8.4669   -0.3788    3.9702 H         1 <0>         0.2154
@<TRIPOS>BOND
     1    1    2 1
     2    1   27 1
     3    1   28 1
     4    1   29 1
     5    2    3 1
     6    2    4 1
     7    2   15 1
     8    4    5 2
     9    4    6 am
    10    6    7 1
    11    6   30 1
    12    7   12 ar
    13    7    8 ar
    14    8    9 ar
    15    8   31 1
    16    9   10 ar
    17    9   32 1
    18   10   11 ar
    19   10   14 1
    20   11   12 ar
    21   11   33 1
    22   12   13 1
    23   15   16 1
    24   16   20 1
    25   16   17 2
    26   17   18 1
    27   18   19 2
    28   19   20 1
    29   19   22 1
    30   20   21 1
    31   21   34 1
    32   21   35 1
    33   22   26 1
    34   22   23 2
    35   23   24 1
    36   23   36 1
    37   24   25 2
    38   24   37 1
    39   25   26 1
    40   25   38 1
@<TRIPOS>MOLECULE
ZINC08568085
   42    45     0     0     0
SMALL
USER_CHARGES

@<TRIPOS>ATOM
      1 C1         -0.0187    1.5258    0.0104 C.3       1 <0>        -0.1537
      2 C2          0.0021   -0.0041    0.0020 C.3       1 <0>        -0.1199
      3 C3          0.7421   -0.5109    1.2415 C.3       1 <0>        -0.1281
      4 C4          0.7628   -2.0407    1.2331 C.3       1 <0>        -0.0510
      5 C5          1.4917   -2.5400    2.4540 C.2       1 <0>         0.1335
      6 C6          2.8543   -2.7883    2.5446 C.2       1 <0>        -0.2570
      7 C7          3.1213   -3.2267    3.8136 C.2       1 <0>         0.2916
      8 N1          1.9603   -3.2496    4.4868 N.pl3     1 <0>        -0.4390
      9 H1          1.8415   -3.5186    5.4111 H         1 <0>         0.4504
     10 N2          0.9495   -2.8100    3.6177 N.2       1 <0>        -0.2519
     11 O1          4.3710   -3.5558    4.2243 O.3       1 <0>        -0.2265
     12 C8          5.4088   -3.1952    3.4425 C.2       1 <0>         0.4604
     13 C9          5.2729   -2.7588    2.1682 C.2       1 <0>        -0.2540
     14 C10         3.9288   -2.6381    1.5050 C.3       1 <0>         0.1279
     15 C11         3.7717   -3.6454    0.4116 C.ar      1 <0>        -0.1225
     16 C12         3.7951   -5.0234    0.4267 C.ar      1 <0>        -0.0329
     17 C13         3.6121   -5.6714   -0.7911 C.ar      1 <0>        -0.0613
     18 C14         3.4161   -4.9624   -1.9600 C.ar      1 <0>        -0.0711
     19 C15         3.3918   -3.5768   -1.9822 C.ar      1 <0>        -0.1257
     20 C16         3.5752   -2.9150   -0.7671 C.ar      1 <0>         0.1573
     21 N3          3.5994   -1.5567   -0.5011 N.am      1 <0>        -0.6593
     22 C17         3.8034   -1.3012    0.8086 C.2       1 <0>         0.5442
     23 O2          3.8723   -0.2075    1.3283 O.2       1 <0>        -0.4687
     24 Cl1         3.6310   -7.4066   -0.8422 Cl        1 <0>        -0.0664
     25 C18         6.4458   -2.3995    1.4293 C.1       1 <0>         0.2642
     26 N4          7.3761   -2.1145    0.8431 N.1       1 <0>        -0.4222
     27 N5          6.6743   -3.2748    3.9685 N.pl3     1 <0>        -0.8218
     28 H2          1.0039    1.9031    0.0027 H         1 <0>         0.0548
     29 H3         -0.5459    1.8868   -0.8726 H         1 <0>         0.0548
     30 H4         -0.5289    1.8773    0.9072 H         1 <0>         0.0546
     31 H5         -1.0205   -0.3814    0.0098 H         1 <0>         0.0640
     32 H6          0.5123   -0.3556   -0.8948 H         1 <0>         0.0597
     33 H7          1.7647   -0.1336    1.2338 H         1 <0>         0.0778
     34 H8          0.2319   -0.1594    2.1383 H         1 <0>         0.0687
     35 H9         -0.2598   -2.4180    1.2409 H         1 <0>         0.0900
     36 H10         1.2730   -2.3923    0.3363 H         1 <0>         0.0847
     37 H11         3.9489   -5.5753    1.3423 H         1 <0>         0.1425
     38 H12         3.2772   -5.5038   -2.8842 H         1 <0>         0.1402
     39 H13         3.2381   -3.0317   -2.9018 H         1 <0>         0.1470
     40 H14         3.4833   -0.8697   -1.1760 H         1 <0>         0.4189
     41 H15         6.8025   -3.5837    4.8790 H         1 <0>         0.4154
     42 H16         7.4402   -3.0221    3.4296 H         1 <0>         0.4304
@<TRIPOS>BOND
     1    1    2 1
     2    1   28 1
     3    1   29 1
     4    1   30 1
     5    2    3 1
     6    2   31 1
     7    2   32 1
     8    3    4 1
     9    3   33 1
    10    3   34 1
    11    4    5 1
    12    4   35 1
    13    4   36 1
    14    5   10 2
    15    5    6 1
    16    6   14 1
    17    6    7 2
    18    7    8 1
    19    7   11 1
    20    8    9 1
    21    8   10 1
    22   11   12 1
    23   12   13 2
    24   12   27 1
    25   13   14 1
    26   13   25 1
    27   14   22 1
    28   14   15 1
    29   15   20 ar
    30   15   16 ar
    31   16   17 ar
    32   16   37 1
    33   17   18 ar
    34   17   24 1
    35   18   19 ar
    36   18   38 1
    37   19   20 ar
    38   19   39 1
    39   20   21 1
    40   21   22 am
    41   21   40 1
    42   22   23 2
    43   25   26 3
    44   27   41 1
    45   27   42 1
@<TRIPOS>MOLECULE
ZINC67548260
   60    61     0     0     0
SMALL
USER_CHARGES

@<TRIPOS>ATOM
      1 C1         -2.1090    0.5297    0.1732 C.3       1 <0>        -0.1159
      2 C2         -1.2744   -0.7230    0.1006 C.ar      1 <0>        -0.1215
      3 C3         -1.2958   -1.4985   -1.0368 C.ar      1 <0>        -0.0384
      4 C4         -0.5216   -2.6599   -1.1033 C.ar      1 <0>        -0.1522
      5 C5          0.2723   -3.0302   -0.0141 C.ar      1 <0>        -0.0714
      6 C6          0.2891   -2.2504    1.1199 C.ar      1 <0>        -0.1253
      7 C7         -0.4788   -1.0914    1.1807 C.ar      1 <0>         0.1912
      8 N1         -0.4550   -0.3007    2.3288 N.am      1 <0>        -0.6806
      9 C8         -0.3221   -0.8757    3.5405 C.2       1 <0>         0.7100
     10 O1         -0.1349   -2.0739    3.6275 O.2       1 <0>        -0.5689
     11 N2         -0.3967   -0.1226    4.6557 N.am      1 <0>        -0.7239
     12 C9         -0.2522   -0.7477    5.9727 C.3       1 <0>         0.1421
     13 H1         -0.6968   -1.7427    5.9534 H         1 <0>         0.1135
     14 C10         1.2327   -0.8594    6.3241 C.3       1 <0>        -0.1653
     15 C11        -0.9514    0.0950    7.0082 C.2       1 <0>         0.5157
     16 O2         -1.2712    1.2353    6.7468 O.2       1 <0>        -0.5270
     17 N3         -1.2213   -0.4186    8.2247 N.am      1 <0>        -0.6017
     18 C12        -0.7280   -1.7503    8.6012 C.3       1 <0>         0.0940
     19 C13         0.0437   -1.6357    9.9196 C.3       1 <0>        -0.1361
     20 C14        -0.8488   -0.9750   10.9727 C.3       1 <0>        -0.1223
     21 C15        -1.2283    0.4339   10.5111 C.3       1 <0>        -0.1329
     22 C16        -2.0093    0.3452    9.2016 C.3       1 <0>         0.1428
     23 H2         -2.9590   -0.1593    9.3796 H         1 <0>         0.0739
     24 C17        -2.2665    1.7543    8.6639 C.3       1 <0>        -0.1383
     25 C18        -0.5424   -3.4939   -2.3207 C.2       1 <0>         0.5624
     26 O3         -1.2338   -3.1708   -3.2673 O.2       1 <0>        -0.5382
     27 N4          0.2049   -4.6138   -2.3833 N.am      1 <0>        -0.7243
     28 C19         0.1842   -5.4417   -3.5918 C.3       1 <0>         0.1357
     29 C20         1.1892   -4.8902   -4.6050 C.3       1 <0>        -0.1645
     30 C21         0.5607   -6.8801   -3.2310 C.3       1 <0>        -0.1620
     31 H3         -1.5295    1.3745   -0.1992 H         1 <0>         0.0740
     32 H4         -3.0039    0.4059   -0.4366 H         1 <0>         0.0755
     33 H5         -2.3972    0.7147    1.2080 H         1 <0>         0.0648
     34 H6         -1.9106   -1.2098   -1.8765 H         1 <0>         0.1403
     35 H7          0.8716   -3.9274   -0.0622 H         1 <0>         0.1278
     36 H8          0.9023   -2.5359    1.9619 H         1 <0>         0.1497
     37 H9         -0.5342    0.6633    2.2556 H         1 <0>         0.4108
     38 H10        -0.5461    0.8333    4.5863 H         1 <0>         0.4087
     39 H11         1.3440   -1.3986    7.2648 H         1 <0>         0.0774
     40 H12         1.7538   -1.3981    5.5327 H         1 <0>         0.0778
     41 H13         1.6583    0.1390    6.4251 H         1 <0>         0.0657
     42 H14        -1.5709   -2.4295    8.7291 H         1 <0>         0.0751
     43 H15        -0.0662   -2.1286    7.8221 H         1 <0>         0.0934
     44 H16         0.3327   -2.6301   10.2597 H         1 <0>         0.0800
     45 H17         0.9364   -1.0291    9.7670 H         1 <0>         0.0690
     46 H18        -1.7528   -1.5690   11.1069 H         1 <0>         0.0659
     47 H19        -0.3106   -0.9145   11.9186 H         1 <0>         0.0687
     48 H20        -1.8446    0.9124   11.2721 H         1 <0>         0.0772
     49 H21        -0.3236    1.0209   10.3529 H         1 <0>         0.0680
     50 H22        -2.8913    1.6946    7.7727 H         1 <0>         0.0695
     51 H23        -2.7748    2.3464    9.4249 H         1 <0>         0.0460
     52 H24        -1.3168    2.2257    8.4110 H         1 <0>         0.0732
     53 H25         0.7564   -4.8716   -1.6282 H         1 <0>         0.3991
     54 H26        -0.8155   -5.4257   -4.0260 H         1 <0>         0.0894
     55 H27         1.1738   -5.5062   -5.5041 H         1 <0>         0.0667
     56 H28         0.9210   -3.8655   -4.8620 H         1 <0>         0.0610
     57 H29         2.1889   -4.9061   -4.1708 H         1 <0>         0.0567
     58 H30        -0.1554   -7.2729   -2.5092 H         1 <0>         0.0624
     59 H31         0.5453   -7.4960   -4.1302 H         1 <0>         0.0743
     60 H32         1.5603   -6.8960   -2.7968 H         1 <0>         0.0613
@<TRIPOS>BOND
     1    1    2 1
     2    1   31 1
     3    1   32 1
     4    1   33 1
     5    2    7 ar
     6    2    3 ar
     7    3    4 ar
     8    3   34 1
     9    4    5 ar
    10    4   25 1
    11    5    6 ar
    12    5   35 1
    13    6    7 ar
    14    6   36 1
    15    7    8 1
    16    8    9 am
    17    8   37 1
    18    9   10 2
    19    9   11 am
    20   11   12 1
    21   11   38 1
    22   12   13 1
    23   12   14 1
    24   12   15 1
    25   14   39 1
    26   14   40 1
    27   14   41 1
    28   15   16 2
    29   15   17 am
    30   17   22 1
    31   17   18 1
    32   18   19 1
    33   18   42 1
    34   18   43 1
    35   19   20 1
    36   19   44 1
    37   19   45 1
    38   20   21 1
    39   20   46 1
    40   20   47 1
    41   21   22 1
    42   21   48 1
    43   21   49 1
    44   22   23 1
    45   22   24 1
    46   24   50 1
    47   24   51 1
    48   24   52 1
    49   25   26 2
    50   25   27 am
    51   27   28 1
    52   27   53 1
    53   28   29 1
    54   28   30 1
    55   28   54 1
    56   29   55 1
    57   29   56 1
    58   29   57 1
    59   30   58 1
    60   30   59 1
    61   30   60 1
@<TRIPOS>MOLECULE
ZINC38573894
   60    63     0     0     0
SMALL
USER_CHARGES

@<TRIPOS>ATOM
      1 C1         -1.4598    1.6359   -1.1652 C.3       1 <0>        -0.1144
      2 S1         -1.3555   -0.1747   -1.2044 S.3       1 <0>        -0.2727
      3 C2          0.1864   -0.5062   -2.1005 C.3       1 <0>        -0.0776
      4 C3          0.3997   -2.0175   -2.2069 C.3       1 <0>        -0.1104
      5 C4          1.7002   -2.2971   -2.9627 C.3       1 <0>         0.1371
      6 H1          2.5212   -1.7646   -2.4826 H         1 <0>         0.1170
      7 C5          1.9831   -3.7772   -2.9453 C.2       1 <0>         0.5260
      8 O1          1.6084   -4.4770   -3.8622 O.2       1 <0>        -0.5043
      9 N1          2.6526   -4.3232   -1.9108 N.am      1 <0>        -0.6198
     10 C6          3.0126   -3.5117   -0.7399 C.3       1 <0>         0.0836
     11 C7          2.4894   -4.2068    0.5211 C.3       1 <0>        -0.1488
     12 C8          3.0142   -5.6423    0.5635 C.3       1 <0>         0.0980
     13 C9          2.5132   -6.4129   -0.6586 C.3       1 <0>        -0.1553
     14 C10         3.0313   -5.7428   -1.9295 C.3       1 <0>         0.0998
     15 C11         2.5293   -6.3305    1.8401 C.3       1 <0>        -0.0252
     16 H2          2.7787   -5.7448    2.7250 H         1 <0>         0.1646
     17 C12         3.2126   -7.6945    1.8603 C.2       1 <0>         0.1382
     18 N2          2.2773   -8.5576    1.9473 N.2       1 <0>        -0.4631
     19 C13         1.0532   -7.9769    1.8945 C.2       1 <0>         0.2809
     20 N3          1.1047   -6.6647    1.8061 N.2       1 <0>        -0.4667
     21 C14         4.7018   -7.8306    1.6688 C.3       1 <0>        -0.0723
     22 C15         5.0495   -6.9750    0.4357 C.3       1 <0>        -0.0145
     23 N4          4.4842   -5.6306    0.5713 N.4       1 <0>        -0.5069
     24 N5          1.5671   -1.8416   -4.3488 N.am      1 <0>        -0.7152
     25 C16         1.8136   -0.5540   -4.6616 C.2       1 <0>         0.5586
     26 O2          2.1463    0.2294   -3.7937 O.2       1 <0>        -0.4999
     27 C17         1.6793   -0.0946   -6.0598 C.ar      1 <0>        -0.1229
     28 C18         1.2918   -0.9903   -7.0582 C.ar      1 <0>        -0.0786
     29 C19         1.1679   -0.5551   -8.3609 C.ar      1 <0>        -0.1115
     30 C20         1.4271    0.7665   -8.6805 C.ar      1 <0>        -0.0794
     31 C21         1.8118    1.6597   -7.6974 C.ar      1 <0>        -0.0991
     32 C22         1.9339    1.2390   -6.3876 C.ar      1 <0>        -0.0410
     33 Br1         2.4519    2.4634   -5.0429 Br        1 <0>        -0.0072
     34 H3         -0.5892    2.0389   -0.6477 H         1 <0>         0.0779
     35 H4         -1.4865    2.0205   -2.1848 H         1 <0>         0.0786
     36 H5         -2.3662    1.9364   -0.6397 H         1 <0>         0.1042
     37 H6          0.1251   -0.0766   -3.1005 H         1 <0>         0.0900
     38 H7          1.0224   -0.0582   -1.5633 H         1 <0>         0.0893
     39 H8          0.4610   -2.4470   -1.2070 H         1 <0>         0.0836
     40 H9         -0.4363   -2.4654   -2.7441 H         1 <0>         0.0882
     41 H10         4.0968   -3.4158   -0.6811 H         1 <0>         0.0760
     42 H11         2.5604   -2.5237   -0.8270 H         1 <0>         0.1224
     43 H12         2.8341   -3.6673    1.4033 H         1 <0>         0.1123
     44 H13         1.3996   -4.2183    0.5043 H         1 <0>         0.1304
     45 H14         2.8750   -7.4402   -0.6142 H         1 <0>         0.1011
     46 H15         1.4232   -6.4109   -0.6680 H         1 <0>         0.1235
     47 H16         2.5913   -6.2269   -2.8014 H         1 <0>         0.1245
     48 H17         4.1170   -5.8309   -1.9690 H         1 <0>         0.0706
     49 H18         0.1277   -8.5324    1.9292 H         1 <0>         0.2211
     50 H19         5.2291   -7.4563    2.5463 H         1 <0>         0.1310
     51 H20         4.9635   -8.8732    1.4883 H         1 <0>         0.1456
     52 H21         6.1329   -6.9027    0.3409 H         1 <0>         0.1598
     53 H22         4.6430   -7.4486   -0.4580 H         1 <0>         0.1396
     54 H23         4.8111   -5.0593   -0.1934 H         1 <0>         0.4326
     55 H24         1.3017   -2.4668   -5.0413 H         1 <0>         0.4112
     56 H25         1.0898   -2.0221   -6.8109 H         1 <0>         0.1336
     57 H26         0.8682   -1.2473   -9.1339 H         1 <0>         0.1396
     58 H27         1.3287    1.1016   -9.7025 H         1 <0>         0.1414
     59 H28         2.0132    2.6893   -7.9537 H         1 <0>         0.1431
     60 H29         4.8037   -5.2272    1.4392 H         1 <0>         0.4315
@<TRIPOS>BOND
     1    1    2 1
     2    1   34 1
     3    1   35 1
     4    1   36 1
     5    2    3 1
     6    3    4 1
     7    3   37 1
     8    3   38 1
     9    4    5 1
    10    4   39 1
    11    4   40 1
    12    5    6 1
    13    5    7 1
    14    5   24 1
    15    7    8 2
    16    7    9 am
    17    9   14 1
    18    9   10 1
    19   10   11 1
    20   10   41 1
    21   10   42 1
    22   11   12 1
    23   11   43 1
    24   11   44 1
    25   12   23 1
    26   12   13 1
    27   12   15 1
    28   13   14 1
    29   13   45 1
    30   13   46 1
    31   14   47 1
    32   14   48 1
    33   15   16 1
    34   15   20 1
    35   15   17 1
    36   17   18 2
    37   17   21 1
    38   18   19 1
    39   19   20 2
    40   19   49 1
    41   21   22 1
    42   21   50 1
    43   21   51 1
    44   22   23 1
    45   22   52 1
    46   22   53 1
    47   23   54 1
    48   23   60 1
    49   24   25 am
    50   24   55 1
    51   25   26 2
    52   25   27 1
    53   27   32 ar
    54   27   28 ar
    55   28   29 ar
    56   28   56 1
    57   29   30 ar
    58   29   57 1
    59   30   31 ar
    60   30   58 1
    61   31   32 ar
    62   31   59 1
    63   32   33 1
@<TRIPOS>MOLECULE
ZINC39661389
   66    69     0     0     0
SMALL
USER_CHARGES

@<TRIPOS>ATOM
      1 C1         -0.0362    1.9687   -0.5935 C.3       1 <0>        -0.1519
      2 C2          0.0830    0.4534   -0.4189 C.3       1 <0>        -0.1049
      3 C3          1.1407    0.1439    0.6425 C.3       1 <0>        -0.1610
      4 C4         -1.2659   -0.1167    0.0240 C.3       1 <0>         0.0743
      5 H1         -1.5781    0.3661    0.9500 H         1 <0>         0.0997
      6 C5         -1.1341   -1.6007    0.2509 C.2       1 <0>         0.5455
      7 O1         -1.4548   -2.3786   -0.6226 O.2       1 <0>        -0.5035
      8 N1         -0.6597   -2.0634    1.4245 N.am      1 <0>        -0.6209
      9 C6         -0.3329   -1.2850    2.6424 C.3       1 <0>         0.1036
     10 C7         -0.8160   -2.1704    3.8129 C.3       1 <0>        -0.1128
     11 H2         -1.8208   -1.8796    4.1192 H         1 <0>         0.1144
     12 C8         -0.8214   -3.6004    3.2470 C.3       1 <0>        -0.0728
     13 C9         -0.3532   -3.4670    1.7907 C.3       1 <0>         0.1078
     14 C10        -2.2319   -4.1804    3.2902 C.3       1 <0>        -0.1345
     15 C11        -2.2017   -5.6224    2.7757 C.3       1 <0>        -0.0113
     16 N2         -1.2962   -6.4223    3.6093 N.4       1 <0>        -0.5041
     17 C12         0.0756   -5.9139    3.4893 C.3       1 <0>        -0.0075
     18 C13         0.1416   -4.4841    4.0337 C.3       1 <0>        -0.1473
     19 C14         0.1364   -2.0677    4.9763 C.2       1 <0>         0.5250
     20 O2          1.3004   -1.7865    4.7841 O.2       1 <0>        -0.5052
     21 N3         -0.3054   -2.2882    6.2304 N.am      1 <0>        -0.7162
     22 C15         0.6205   -2.1883    7.3613 C.3       1 <0>         0.0729
     23 H3          1.6046   -2.5340    7.0447 H         1 <0>         0.1314
     24 C16         0.1193   -3.0849    8.4953 C.3       1 <0>        -0.1292
     25 C17         0.7211   -2.5524    9.8173 C.3       1 <0>        -0.0884
     26 S1          0.8886   -0.7619    9.4554 S.3       1 <0>        -0.1329
     27 C18         0.7212   -0.7429    7.7874 C.2       1 <0>         0.3288
     28 O3          0.6891    0.2344    7.0691 O.2       1 <0>        -0.3852
     29 O4         -2.2418    0.1250   -0.9916 O.3       1 <0>        -0.2834
     30 C19        -3.1036    1.1556   -0.7864 C.ar      1 <0>         0.1224
     31 C20        -4.1542    1.3686   -1.6670 C.ar      1 <0>        -0.1465
     32 C21        -5.0291    2.4166   -1.4559 C.ar      1 <0>        -0.0767
     33 C22        -4.8582    3.2531   -0.3684 C.ar      1 <0>        -0.1519
     34 C23        -3.8116    3.0432    0.5105 C.ar      1 <0>        -0.0785
     35 C24        -2.9376    1.9929    0.3072 C.ar      1 <0>        -0.2133
     36 H4          0.9248    2.3748   -0.9090 H         1 <0>         0.0691
     37 H5         -0.7897    2.1891   -1.3496 H         1 <0>         0.0648
     38 H6         -0.3287    2.4217    0.3538 H         1 <0>         0.0594
     39 H7          0.3756    0.0004   -1.3662 H         1 <0>         0.0908
     40 H8          0.8750    0.6405    1.5757 H         1 <0>         0.0625
     41 H9          1.1885   -0.9329    0.8047 H         1 <0>         0.0617
     42 H10         2.1120    0.5037    0.3032 H         1 <0>         0.0730
     43 H11         0.7423   -1.1189    2.7101 H         1 <0>         0.1111
     44 H12        -0.8658   -0.3342    2.6401 H         1 <0>         0.0922
     45 H13        -0.9037   -4.1562    1.1504 H         1 <0>         0.0922
     46 H14         0.7183   -3.6535    1.7194 H         1 <0>         0.0871
     47 H15        -2.5993   -4.1678    4.3164 H         1 <0>         0.0966
     48 H16        -2.8905   -3.5829    2.6599 H         1 <0>         0.1191
     49 H17        -3.2053   -6.0451    2.8208 H         1 <0>         0.1411
     50 H18        -1.8496   -5.6325    1.7441 H         1 <0>         0.1351
     51 H19        -1.5909   -6.3667    4.5727 H         1 <0>         0.4270
     52 H20         0.7504   -6.5515    4.0605 H         1 <0>         0.1401
     53 H21         0.3736   -5.9173    2.4409 H         1 <0>         0.1343
     54 H22         1.1565   -4.1009    3.9275 H         1 <0>         0.1258
     55 H23        -0.1403   -4.4823    5.0866 H         1 <0>         0.0968
     56 H24        -1.2363   -2.5131    6.3841 H         1 <0>         0.4052
     57 H25        -0.9690   -3.0466    8.5430 H         1 <0>         0.0945
     58 H26         0.4467   -4.1109    8.3272 H         1 <0>         0.1063
     59 H27         0.0398   -2.7198   10.6516 H         1 <0>         0.1286
     60 H28         1.6937   -3.0037   10.0131 H         1 <0>         0.1174
     61 H29        -4.2877    0.7159   -2.5170 H         1 <0>         0.1326
     62 H30        -5.8472    2.5829   -2.1411 H         1 <0>         0.1331
     63 H31        -5.5431    4.0721   -0.2053 H         1 <0>         0.1274
     64 H32        -3.6800    3.6982    1.3590 H         1 <0>         0.1268
     65 H33        -2.1228    1.8267    0.9964 H         1 <0>         0.1272
     66 H34        -1.3245   -7.3844    3.3067 H         1 <0>         0.4352
@<TRIPOS>BOND
     1    1    2 1
     2    1   36 1
     3    1   37 1
     4    1   38 1
     5    2    3 1
     6    2    4 1
     7    2   39 1
     8    3   40 1
     9    3   41 1
    10    3   42 1
    11    4    5 1
    12    4    6 1
    13    4   29 1
    14    6    7 2
    15    6    8 am
    16    8   13 1
    17    8    9 1
    18    9   10 1
    19    9   43 1
    20    9   44 1
    21   10   11 1
    22   10   12 1
    23   10   19 1
    24   12   18 1
    25   12   13 1
    26   12   14 1
    27   13   45 1
    28   13   46 1
    29   14   15 1
    30   14   47 1
    31   14   48 1
    32   15   16 1
    33   15   49 1
    34   15   50 1
    35   16   17 1
    36   16   51 1
    37   16   66 1
    38   17   18 1
    39   17   52 1
    40   17   53 1
    41   18   54 1
    42   18   55 1
    43   19   20 2
    44   19   21 am
    45   21   22 1
    46   21   56 1
    47   22   23 1
    48   22   27 1
    49   22   24 1
    50   24   25 1
    51   24   57 1
    52   24   58 1
    53   25   26 1
    54   25   59 1
    55   25   60 1
    56   26   27 1
    57   27   28 2
    58   29   30 1
    59   30   35 ar
    60   30   31 ar
    61   31   32 ar
    62   31   61 1
    63   32   33 ar
    64   32   62 1
    65   33   34 ar
    66   33   63 1
    67   34   35 ar
    68   34   64 1
    69   35   65 1
@<TRIPOS>MOLECULE
ZINC39678637
   58    60     0     0     0
SMALL
USER_CHARGES

@<TRIPOS>ATOM
      1 C1          5.2005    2.2908    5.1381 C.3       1 <0>        -0.1718
      2 C2          3.9966    2.4520    4.2078 C.3       1 <0>         0.0804
      3 C3          4.4609    3.0257    2.8676 C.3       1 <0>        -0.1540
      4 O1          3.3855    1.1780    3.9944 O.3       1 <0>        -0.3384
      5 C4          2.4173    0.8155    4.8505 C.2       1 <0>         0.4598
      6 O2          2.0991    1.5554    5.7511 O.2       1 <0>        -0.5079
      7 C5          1.7271   -0.5143    4.6883 C.3       1 <0>         0.1256
      8 N1          0.7182   -0.6723    5.7387 N.am      1 <0>        -0.7250
      9 C6         -0.0286   -1.7929    5.7927 C.2       1 <0>         0.5152
     10 O3          0.1345   -2.6705    4.9717 O.2       1 <0>        -0.4950
     11 C7         -1.0664   -1.9553    6.8733 C.3       1 <0>        -0.1106
     12 H1         -1.4969   -0.9883    7.1336 H         1 <0>         0.1207
     13 C8         -2.1732   -2.9307    6.4139 C.3       1 <0>         0.1161
     14 N2         -1.7619   -4.2465    6.9575 N.am      1 <0>        -0.6078
     15 C9         -1.2218   -3.9370    8.3031 C.3       1 <0>         0.1088
     16 C10        -0.4470   -2.6175    8.1155 C.3       1 <0>        -0.0732
     17 C11        -0.6264   -1.7213    9.3370 C.3       1 <0>        -0.1346
     18 C12         0.0485   -2.3737   10.5468 C.3       1 <0>        -0.0099
     19 N3          1.4755   -2.5719   10.2657 N.4       1 <0>        -0.5048
     20 C13         1.6402   -3.5089    9.1478 C.3       1 <0>        -0.0090
     21 C14         1.0326   -2.9044    7.8788 C.3       1 <0>        -0.1484
     22 C15        -1.8575   -5.4523    6.3631 C.2       1 <0>         0.6049
     23 O4         -1.4732   -6.4487    6.9441 O.2       1 <0>        -0.5081
     24 C16        -2.4292   -5.5633    5.0058 C.ar      1 <0>        -0.1199
     25 C17        -1.5994   -5.4747    3.8849 C.ar      1 <0>         0.0123
     26 C18        -2.1412   -5.5799    2.6191 C.ar      1 <0>        -0.1087
     27 C19        -3.5018   -5.7720    2.4591 C.ar      1 <0>        -0.0707
     28 C20        -4.3297   -5.8603    3.5638 C.ar      1 <0>        -0.1083
     29 C21        -3.8018   -5.7633    4.8362 C.ar      1 <0>         0.0008
     30 Cl1        -4.8417   -5.8821    6.2212 Cl        1 <0>        -0.0431
     31 Cl2         0.1082   -5.2324    4.0832 Cl        1 <0>        -0.0231
     32 H2          5.9229    1.6130    4.6834 H         1 <0>         0.0693
     33 H3          5.6665    3.2626    5.3009 H         1 <0>         0.0803
     34 H4          4.8697    1.8821    6.0929 H         1 <0>         0.0571
     35 H5          3.2742    3.1298    4.6625 H         1 <0>         0.0868
     36 H6          5.1833    2.3479    2.4129 H         1 <0>         0.0714
     37 H7          3.6033    3.1405    2.2048 H         1 <0>         0.0675
     38 H8          4.9270    3.9975    3.0303 H         1 <0>         0.0839
     39 H9          1.2446   -0.5565    3.7118 H         1 <0>         0.1182
     40 H10         2.4611   -1.3165    4.7659 H         1 <0>         0.1141
     41 H11         0.5878    0.0297    6.3953 H         1 <0>         0.4098
     42 H12        -3.1372   -2.6335    6.8269 H         1 <0>         0.0925
     43 H13        -2.2201   -2.9670    5.3255 H         1 <0>         0.0987
     44 H14        -2.0341   -3.8018    9.0172 H         1 <0>         0.0882
     45 H15        -0.5503   -4.7289    8.6349 H         1 <0>         0.0901
     46 H16        -0.1703   -0.7500    9.1458 H         1 <0>         0.0989
     47 H17        -1.6895   -1.5911    9.5398 H         1 <0>         0.1232
     48 H18        -0.0637   -1.7276   11.4175 H         1 <0>         0.1405
     49 H19        -0.4193   -3.3376   10.7475 H         1 <0>         0.1334
     50 H20         1.8957   -1.6866   10.0254 H         1 <0>         0.4279
     51 H21         2.7012   -3.6996    8.9871 H         1 <0>         0.1380
     52 H22         1.1345   -4.4457    9.3818 H         1 <0>         0.1351
     53 H23         1.1393   -3.6082    7.0534 H         1 <0>         0.1234
     54 H24         1.5488   -1.9759    7.6349 H         1 <0>         0.0960
     55 H25        -1.5012   -5.5116    1.7518 H         1 <0>         0.1485
     56 H26        -3.9198   -5.8532    1.4666 H         1 <0>         0.1509
     57 H27        -5.3910   -6.0097    3.4309 H         1 <0>         0.1496
     58 H28         1.9298   -2.9454   11.0855 H         1 <0>         0.4343
@<TRIPOS>BOND
     1    1    2 1
     2    1   32 1
     3    1   33 1
     4    1   34 1
     5    2    3 1
     6    2    4 1
     7    2   35 1
     8    3   36 1
     9    3   37 1
    10    3   38 1
    11    4    5 1
    12    5    6 2
    13    5    7 1
    14    7    8 1
    15    7   39 1
    16    7   40 1
    17    8    9 am
    18    8   41 1
    19    9   10 2
    20    9   11 1
    21   11   12 1
    22   11   16 1
    23   11   13 1
    24   13   14 1
    25   13   42 1
    26   13   43 1
    27   14   15 1
    28   14   22 am
    29   15   16 1
    30   15   44 1
    31   15   45 1
    32   16   21 1
    33   16   17 1
    34   17   18 1
    35   17   46 1
    36   17   47 1
    37   18   19 1
    38   18   48 1
    39   18   49 1
    40   19   20 1
    41   19   50 1
    42   19   58 1
    43   20   21 1
    44   20   51 1
    45   20   52 1
    46   21   53 1
    47   21   54 1
    48   22   23 2
    49   22   24 1
    50   24   29 ar
    51   24   25 ar
    52   25   26 ar
    53   25   31 1
    54   26   27 ar
    55   26   55 1
    56   27   28 ar
    57   27   56 1
    58   28   29 ar
    59   28   57 1
    60   29   30 1
@<TRIPOS>MOLECULE
ZINC45772301
   69    72     0     0     0
SMALL
USER_CHARGES

@<TRIPOS>ATOM
      1 C1         -1.8255    1.5613    0.6017 C.3       1 <0>        -0.1559
      2 C2         -2.3684    0.1549    0.8625 C.3       1 <0>        -0.0854
      3 H1         -2.3314   -0.4253   -0.0595 H         1 <0>         0.0974
      4 C3         -3.8172    0.2495    1.3474 C.3       1 <0>        -0.1219
      5 C4         -4.3529   -1.1560    1.6278 C.3       1 <0>        -0.1209
      6 C5         -3.5037   -1.8189    2.7145 C.3       1 <0>        -0.1253
      7 C6         -2.0536   -1.9222    2.2350 C.3       1 <0>        -0.1144
      8 C7         -1.5172   -0.5286    1.9269 C.3       1 <0>         0.1313
      9 C8         -1.4703    0.3093    3.1838 C.2       1 <0>         0.5468
     10 O1         -2.4045    0.6321    3.8859 O.2       1 <0>        -0.4580
     11 N1         -0.1699    0.6226    3.3599 N.am      1 <0>        -0.5664
     12 C9          0.5978    0.1011    2.3952 C.2       1 <0>         0.7081
     13 O2          1.8032    0.2459    2.3383 O.2       1 <0>        -0.5353
     14 N2         -0.1154   -0.6021    1.4949 N.am      1 <0>        -0.7124
     15 C10         0.3388    1.4333    4.4690 C.3       1 <0>         0.1008
     16 C11         0.6911    0.5356    5.6271 C.2       1 <0>         0.4989
     17 O3          0.5328   -0.6633    5.5350 O.2       1 <0>        -0.4825
     18 N3          1.1821    1.0651    6.7651 N.am      1 <0>        -0.6870
     19 C12         1.4206    0.2441    7.8728 C.ar      1 <0>         0.1692
     20 C13         1.8583   -1.0613    7.6901 C.ar      1 <0>        -0.1147
     21 C14         2.0927   -1.8690    8.7854 C.ar      1 <0>        -0.0646
     22 C15         1.8916   -1.3795   10.0632 C.ar      1 <0>        -0.1243
     23 C16         1.4554   -0.0806   10.2484 C.ar      1 <0>        -0.0727
     24 C17         1.2255    0.7345    9.1571 C.ar      1 <0>        -0.1848
     25 C18         0.7571    2.1524    9.3601 C.3       1 <0>         0.0410
     26 N4         -0.6955    2.2227    9.1525 N.4       1 <0>        -0.3855
     27 C19        -1.3769    1.4361   10.1893 C.3       1 <0>        -0.0538
     28 C20        -1.1344    3.6223    9.2322 C.3       1 <0>         0.0227
     29 C21        -2.6473    3.6955    9.0160 C.3       1 <0>        -0.1415
     30 C22        -3.1044    5.1533    9.0989 C.3       1 <0>        -0.1166
     31 C23        -2.3947    5.9725    8.0191 C.3       1 <0>        -0.1318
     32 C24        -0.8818    5.8993    8.2352 C.3       1 <0>        -0.1160
     33 C25        -0.4247    4.4416    8.1523 C.3       1 <0>        -0.1449
     34 H2         -0.7941    1.4942    0.2555 H         1 <0>         0.0613
     35 H3         -2.4333    2.0499   -0.1599 H         1 <0>         0.0735
     36 H4         -1.8623    2.1418    1.5235 H         1 <0>         0.0489
     37 H5         -3.8567    0.8425    2.2612 H         1 <0>         0.0782
     38 H6         -4.4274    0.7244    0.5792 H         1 <0>         0.0758
     39 H7         -5.3873   -1.0900    1.9649 H         1 <0>         0.0709
     40 H8         -4.3054   -1.7514    0.7160 H         1 <0>         0.0668
     41 H9         -3.5441   -1.2191    3.6237 H         1 <0>         0.0763
     42 H10        -3.8906   -2.8170    2.9198 H         1 <0>         0.0745
     43 H11        -1.4454   -2.3811    3.0145 H         1 <0>         0.0754
     44 H12        -2.0118   -2.5349    1.3345 H         1 <0>         0.0899
     45 H13         0.2287   -1.0658    0.7155 H         1 <0>         0.4449
     46 H14         1.2278    1.9747    4.1454 H         1 <0>         0.1372
     47 H15        -0.4265    2.1444    4.7802 H         1 <0>         0.1279
     48 H16         1.3701    2.0154    6.8162 H         1 <0>         0.4095
     49 H17         2.0149   -1.4443    6.6926 H         1 <0>         0.1495
     50 H18         2.4332   -2.8841    8.6440 H         1 <0>         0.1399
     51 H19         2.0753   -2.0133   10.9181 H         1 <0>         0.1390
     52 H20         1.2990    0.2986   11.2474 H         1 <0>         0.1375
     53 H21         0.9950    2.4720   10.3747 H         1 <0>         0.1427
     54 H22         1.2581    2.8063    8.6463 H         1 <0>         0.1303
     55 H23        -1.1303    1.8389   11.1717 H         1 <0>         0.1249
     56 H24        -2.4547    1.4882   10.0353 H         1 <0>         0.1257
     57 H25        -1.0512    0.3976   10.1303 H         1 <0>         0.1246
     58 H26        -0.8878    4.0251   10.2145 H         1 <0>         0.1401
     59 H27        -2.8938    3.2927    8.0336 H         1 <0>         0.0858
     60 H28        -3.1529    3.1119    9.7853 H         1 <0>         0.0892
     61 H29        -4.1822    5.2054    8.9449 H         1 <0>         0.0850
     62 H30        -2.8578    5.5560   10.0813 H         1 <0>         0.0748
     63 H31        -2.6413    5.5697    7.0367 H         1 <0>         0.0702
     64 H32        -2.7203    7.0110    8.0781 H         1 <0>         0.0800
     65 H33        -0.3762    6.4830    7.4659 H         1 <0>         0.0855
     66 H34        -0.6352    6.3021    9.2176 H         1 <0>         0.0757
     67 H35         0.6531    4.3894    8.3063 H         1 <0>         0.0874
     68 H36        -0.6713    4.0388    7.1699 H         1 <0>         0.0841
     69 H37        -0.9237    1.8498    8.2431 H         1 <0>         0.4176
@<TRIPOS>BOND
     1    1    2 1
     2    1   34 1
     3    1   35 1
     4    1   36 1
     5    2    3 1
     6    2    8 1
     7    2    4 1
     8    4    5 1
     9    4   37 1
    10    4   38 1
    11    5    6 1
    12    5   39 1
    13    5   40 1
    14    6    7 1
    15    6   41 1
    16    6   42 1
    17    7    8 1
    18    7   43 1
    19    7   44 1
    20    8   14 1
    21    8    9 1
    22    9   10 2
    23    9   11 am
    24   11   12 am
    25   11   15 1
    26   12   13 2
    27   12   14 am
    28   14   45 1
    29   15   16 1
    30   15   46 1
    31   15   47 1
    32   16   17 2
    33   16   18 am
    34   18   19 1
    35   18   48 1
    36   19   24 ar
    37   19   20 ar
    38   20   21 ar
    39   20   49 1
    40   21   22 ar
    41   21   50 1
    42   22   23 ar
    43   22   51 1
    44   23   24 ar
    45   23   52 1
    46   24   25 1
    47   25   26 1
    48   25   53 1
    49   25   54 1
    50   26   27 1
    51   26   28 1
    52   26   69 1
    53   27   55 1
    54   27   56 1
    55   27   57 1
    56   28   33 1
    57   28   29 1
    58   28   58 1
    59   29   30 1
    60   29   59 1
    61   29   60 1
    62   30   31 1
    63   30   61 1
    64   30   62 1
    65   31   32 1
    66   31   63 1
    67   31   64 1
    68   32   33 1
    69   32   65 1
    70   32   66 1
    71   33   67 1
    72   33   68 1
@<TRIPOS>MOLECULE
ZINC63383475
   63    68     0     0     0
SMALL
USER_CHARGES

@<TRIPOS>ATOM
      1 C1         -1.0876    1.9096    0.8055 C.3       1 <0>        -0.1620
      2 C2         -0.1046    0.8100    0.3986 C.3       1 <0>         0.1317
      3 H1         -0.6509   -0.0139   -0.0607 H         1 <0>         0.1186
      4 C3          0.8899    1.3652   -0.5882 C.2       1 <0>         0.5145
      5 O1          2.0740    1.3564   -0.3258 O.2       1 <0>        -0.5364
      6 N1          0.4635    1.8716   -1.7622 N.am      1 <0>        -0.7137
      7 C4          1.4303    2.4114   -2.7214 C.3       1 <0>         0.1610
      8 C5          0.7015    2.9106   -3.9423 C.ar      1 <0>        -0.1097
      9 C6          0.6453    2.1295   -5.0815 C.ar      1 <0>        -0.0871
     10 C7         -0.0232    2.5872   -6.2013 C.ar      1 <0>        -0.1145
     11 C8         -0.6361    3.8264   -6.1829 C.ar      1 <0>        -0.0942
     12 C9         -0.5806    4.6082   -5.0447 C.ar      1 <0>        -0.1107
     13 C10         0.0836    4.1481   -3.9214 C.ar      1 <0>        -0.0215
     14 Cl1         0.1481    5.1267   -2.4889 Cl        1 <0>        -0.0601
     15 N2          0.6039    0.3247    1.5854 N.am      1 <0>        -0.7014
     16 C11         0.0512   -0.6335    2.3554 C.2       1 <0>         0.5191
     17 O2         -1.0328   -1.0939    2.0658 O.2       1 <0>        -0.4888
     18 C12         0.7801   -1.1327    3.5763 C.3       1 <0>         0.1543
     19 H2          1.6488   -0.5029    3.7681 H         1 <0>         0.1142
     20 C13         1.2340   -2.5882    3.3506 C.3       1 <0>        -0.0930
     21 C14         1.5558   -3.1665    4.7064 C.2       1 <0>         0.0618
     22 C15         2.6495   -3.7762    5.1519 C.ar      1 <0>        -0.1563
     23 C16         3.8850   -4.1903    4.4678 C.ar      1 <0>         0.0010
     24 C17         4.8290   -4.7855    5.2440 C.ar      1 <0>        -0.1573
     25 C18         4.6690   -5.0071    6.6154 C.ar      1 <0>         0.0591
     26 C19         3.5627   -4.6670    7.3238 C.ar      1 <0>        -0.2083
     27 C20         2.4965   -4.0409    6.6145 C.ar      1 <0>         0.3372
     28 N3          1.3329   -3.6368    7.0294 N.pl3     1 <0>        -0.5747
     29 C21         0.5860   -3.1176    5.8816 C.3       1 <0>         0.0836
     30 H3         -0.2948   -3.7285    5.6842 H         1 <0>         0.1826
     31 C22         0.2086   -1.6445    6.0732 C.3       1 <0>         0.1983
     32 H4          1.0354   -1.0921    6.5196 H         1 <0>         0.1242
     33 N4         -0.1197   -1.1008    4.7369 N.am      1 <0>        -0.6179
     34 C23        -1.3654   -0.5937    4.7716 C.2       1 <0>         0.5630
     35 O3         -1.9002    0.0019    3.8569 O.2       1 <0>        -0.4565
     36 C24        -1.9833   -0.8635    6.0712 C.ar      1 <0>        -0.1504
     37 C25        -1.0233   -1.5134    6.9087 C.ar      1 <0>        -0.1183
     38 C26        -1.2996   -1.8958    8.2025 C.ar      1 <0>        -0.0867
     39 C27        -2.5736   -1.6127    8.6868 C.ar      1 <0>        -0.0872
     40 C28        -3.5220   -0.9768    7.9110 C.ar      1 <0>        -0.1070
     41 C29        -3.2654   -0.5789    6.5485 C.ar      1 <0>        -0.0192
     42 H5         -0.5413    2.7335    1.2648 H         1 <0>         0.0642
     43 H6         -1.6148    2.2707   -0.0776 H         1 <0>         0.0739
     44 H7         -1.8069    1.5080    1.5192 H         1 <0>         0.0843
     45 H8         -0.4835    1.8786   -1.9720 H         1 <0>         0.4058
     46 H9          1.9766    3.2352   -2.2622 H         1 <0>         0.0863
     47 H10         2.1306    1.6280   -3.0113 H         1 <0>         0.0841
     48 H11         1.1242    1.1616   -5.0966 H         1 <0>         0.1348
     49 H12        -0.0665    1.9768   -7.0912 H         1 <0>         0.1343
     50 H13        -1.1579    4.1837   -7.0583 H         1 <0>         0.1369
     51 H14        -1.0591    5.5763   -5.0305 H         1 <0>         0.1379
     52 H15         1.4709    0.6930    1.8171 H         1 <0>         0.4110
     53 H16         0.4318   -3.1595    2.8836 H         1 <0>         0.1383
     54 H17         2.1217   -2.6068    2.7184 H         1 <0>         0.1324
     55 H18         4.0331   -4.0308    3.4099 H         1 <0>         0.1717
     56 H19         5.7498   -5.1032    4.7778 H         1 <0>         0.1569
     57 H20         5.4808   -5.4815    7.1468 H         1 <0>         0.1594
     58 H21         3.4926   -4.8633    8.3835 H         1 <0>         0.1705
     59 H22        -0.5613   -2.3934    8.8137 H         1 <0>         0.1335
     60 H23        -2.8270   -1.8986    9.6970 H         1 <0>         0.1407
     61 H24        -4.4961   -0.7768    8.3323 H         1 <0>         0.1414
     62 H25        -3.9982   -0.0754    5.9353 H         1 <0>         0.1560
     63 H26         1.0131   -3.6734    7.9444 H         1 <0>         0.4544
@<TRIPOS>BOND
     1    1    2 1
     2    1   42 1
     3    1   43 1
     4    1   44 1
     5    2    3 1
     6    2    4 1
     7    2   15 1
     8    4    5 2
     9    4    6 am
    10    6    7 1
    11    6   45 1
    12    7    8 1
    13    7   46 1
    14    7   47 1
    15    8   13 ar
    16    8    9 ar
    17    9   10 ar
    18    9   48 1
    19   10   11 ar
    20   10   49 1
    21   11   12 ar
    22   11   50 1
    23   12   13 ar
    24   12   51 1
    25   13   14 1
    26   15   16 am
    27   15   52 1
    28   16   17 2
    29   16   18 1
    30   18   19 1
    31   18   33 1
    32   18   20 1
    33   20   21 1
    34   20   53 1
    35   20   54 1
    36   21   29 1
    37   21   22 2
    38   22   27 ar
    39   22   23 ar
    40   23   24 ar
    41   23   55 1
    42   24   25 ar
    43   24   56 1
    44   25   26 ar
    45   25   57 1
    46   26   27 ar
    47   26   58 1
    48   27   28 2
    49   28   29 1
    50   28   63 1
    51   29   30 1
    52   29   31 1
    53   31   32 1
    54   31   37 1
    55   31   33 1
    56   33   34 am
    57   34   35 2
    58   34   36 1
    59   36   41 ar
    60   36   37 ar
    61   37   38 ar
    62   38   39 ar
    63   38   59 1
    64   39   40 ar
    65   39   60 1
    66   40   41 ar
    67   40   61 1
    68   41   62 1
@<TRIPOS>MOLECULE
ZINC09034165
   51    53     0     0     0
SMALL
USER_CHARGES
isopropyl allyl amino-bromo-methyl-oxo-BLAHdicarboxylate
@<TRIPOS>ATOM
      1 C1         -6.4193   -4.4966   -0.2452 C.3       1 <0>        -0.1040
      2 C2         -5.2327   -3.5907   -0.4518 C.2       1 <0>         0.2115
      3 C3         -5.1317   -2.4768    0.2869 C.2       1 <0>        -0.2452
      4 C4         -3.9653   -1.5485    0.1213 C.3       1 <0>         0.1031
      5 C5         -4.3935   -0.2939   -0.5984 C.ar      1 <0>        -0.1236
      6 C6         -4.9205   -0.0612   -1.8488 C.ar      1 <0>        -0.0186
      7 C7         -5.2222    1.2317   -2.2418 C.ar      1 <0>        -0.1155
      8 C8         -4.9924    2.2854   -1.3748 C.ar      1 <0>        -0.0480
      9 C9         -4.4641    2.0547   -0.1218 C.ar      1 <0>        -0.1348
     10 C10        -4.1578    0.7564    0.2809 C.ar      1 <0>         0.1825
     11 N1         -3.6237    0.2739    1.4773 N.am      1 <0>        -0.6489
     12 C11        -3.4789   -1.0633    1.4661 C.2       1 <0>         0.5493
     13 O1         -3.0406   -1.7492    2.3653 O.2       1 <0>        -0.4724
     14 Br1        -5.9468    1.5564   -3.9580 Br        1 <0>        -0.0438
     15 C12        -2.8529   -2.2275   -0.6249 C.2       1 <0>        -0.3501
     16 C13        -3.0901   -3.3730   -1.3187 C.2       1 <0>         0.4305
     17 O2         -4.3134   -3.9257   -1.3688 O.3       1 <0>        -0.2258
     18 N2         -2.0566   -3.9774   -1.9829 N.pl3     1 <0>        -0.8223
     19 C14        -1.5608   -1.6805   -0.6013 C.2       1 <0>         0.5339
     20 O3         -1.2865   -0.7351   -1.3188 O.2       1 <0>        -0.4832
     21 O4         -0.6214   -2.2023    0.2169 O.3       1 <0>        -0.3404
     22 C15         0.6722   -1.5958    0.1892 C.3       1 <0>         0.0737
     23 C16         1.3309   -1.7363    1.5630 C.3       1 <0>        -0.1491
     24 C17         1.5381   -2.2890   -0.8647 C.3       1 <0>        -0.1734
     25 C18        -6.1365   -2.1745    1.2388 C.2       1 <0>         0.5252
     26 O5         -7.0840   -2.9240    1.3820 O.2       1 <0>        -0.5028
     27 O6         -6.0426   -1.0553    1.9865 O.3       1 <0>        -0.3414
     28 C19        -7.0913   -0.8132    2.9264 C.3       1 <0>         0.0974
     29 C20        -6.8177    0.4720    3.6643 C.2       1 <0>        -0.1596
     30 C21        -7.7814    1.3402    3.8472 C.2       1 <0>        -0.1635
     31 H1         -6.3473   -5.3493   -0.9204 H         1 <0>         0.0820
     32 H2         -6.4317   -4.8496    0.7859 H         1 <0>         0.1152
     33 H3         -7.3370   -3.9460   -0.4519 H         1 <0>         0.1148
     34 H4         -5.0980   -0.8863   -2.5226 H         1 <0>         0.1309
     35 H5         -5.2276    3.2940   -1.6811 H         1 <0>         0.1417
     36 H6         -4.2875    2.8824    0.5490 H         1 <0>         0.1369
     37 H7         -3.3845    0.8378    2.2294 H         1 <0>         0.4160
     38 H8         -1.1546   -3.6319   -1.8936 H         1 <0>         0.4263
     39 H9         -2.2264   -4.7511   -2.5427 H         1 <0>         0.4157
     40 H10         0.5730   -0.5393   -0.0598 H         1 <0>         0.0824
     41 H11         2.3176   -1.2737    1.5419 H         1 <0>         0.0780
     42 H12         0.7140   -1.2425    2.3139 H         1 <0>         0.0645
     43 H13         1.4301   -2.7928    1.8120 H         1 <0>         0.0683
     44 H14         1.6373   -3.3455   -0.6158 H         1 <0>         0.0673
     45 H15         1.0688   -2.1889   -1.8435 H         1 <0>         0.0590
     46 H16         2.5248   -1.8264   -0.8858 H         1 <0>         0.0776
     47 H17        -8.0415   -0.7337    2.3982 H         1 <0>         0.0758
     48 H18        -7.1391   -1.6376    3.6379 H         1 <0>         0.0790
     49 H19        -5.8271    0.6771    4.0425 H         1 <0>         0.1173
     50 H20        -7.5853    2.2613    4.3760 H         1 <0>         0.1093
     51 H21        -8.7721    1.1350    3.4690 H         1 <0>         0.1010
@<TRIPOS>BOND
     1    1    2 1
     2    1   31 1
     3    1   32 1
     4    1   33 1
     5    2   17 1
     6    2    3 2
     7    3    4 1
     8    3   25 1
     9    4   12 1
    10    4    5 1
    11    4   15 1
    12    5   10 ar
    13    5    6 ar
    14    6    7 ar
    15    6   34 1
    16    7    8 ar
    17    7   14 1
    18    8    9 ar
    19    8   35 1
    20    9   10 ar
    21    9   36 1
    22   10   11 1
    23   11   12 am
    24   11   37 1
    25   12   13 2
    26   15   16 2
    27   15   19 1
    28   16   17 1
    29   16   18 1
    30   18   38 1
    31   18   39 1
    32   19   20 2
    33   19   21 1
    34   21   22 1
    35   22   23 1
    36   22   24 1
    37   22   40 1
    38   23   41 1
    39   23   42 1
    40   23   43 1
    41   24   44 1
    42   24   45 1
    43   24   46 1
    44   25   26 2
    45   25   27 1
    46   27   28 1
    47   28   29 1
    48   28   47 1
    49   28   48 1
    50   29   30 2
    51   29   49 1
    52   30   50 1
    53   30   51 1
@<TRIPOS>MOLECULE
ZINC16659441
   48    52     0     0     0
SMALL
USER_CHARGES
6-amino-1-cyclopropyl-5-[2-[5-(4-fluorophenyl)thieno[3,2-e]pyrimidin-4-yl]sulfanylacetyl]pyrimidine-2,4-dione
@<TRIPOS>ATOM
      1 C1         -4.7904   -2.3863   -1.5538 C.ar      1 <0>        -0.0671
      2 C2         -3.8562   -3.3964   -1.6567 C.ar      1 <0>        -0.1525
      3 C3         -2.8314   -3.4924   -0.7292 C.ar      1 <0>         0.1102
      4 C4         -2.7361   -2.5721    0.3020 C.ar      1 <0>        -0.1394
      5 C5         -3.6626   -1.5554    0.4102 C.ar      1 <0>        -0.0533
      6 C6         -4.6956   -1.4548   -0.5208 C.ar      1 <0>        -0.0570
      7 C7         -5.6935   -0.3643   -0.4091 C.2       1 <0>        -0.0499
      8 C8         -7.0121   -0.6460   -0.2888 C.2       1 <0>        -0.1419
      9 S1         -7.7740    0.9626   -0.1913 S.3       1 <0>         0.1252
     10 C9         -6.3200    1.9700   -0.3129 C.ar      1 <0>         0.1317
     11 C10        -5.2734    1.0327   -0.4327 C.ar      1 <0>        -0.1745
     12 C11        -3.9688    1.5855   -0.5414 C.ar      1 <0>         0.1977
     13 N1         -3.8220    2.9017   -0.5344 N.ar      1 <0>        -0.5269
     14 C12        -4.8505    3.7223   -0.4241 C.ar      1 <0>         0.3374
     15 N2         -6.0840    3.2679   -0.3147 N.ar      1 <0>        -0.4889
     16 S2         -2.5640    0.5325   -0.6909 S.3       1 <0>         0.0476
     17 C13        -1.2506    1.7735   -0.7954 C.3       1 <0>        -0.1609
     18 C14         0.0824    1.0840   -0.9324 C.2       1 <0>         0.4574
     19 O1          0.1389   -0.1291   -0.9570 O.2       1 <0>        -0.4994
     20 C15         1.2644    1.8477   -1.0380 C.2       1 <0>        -0.4558
     21 C16         2.5278    1.2316   -1.0472 C.2       1 <0>         0.5667
     22 N3          3.6428    2.0128   -1.1555 N.am      1 <0>        -0.5178
     23 C17         3.5527    3.3490   -1.2425 C.2       1 <0>         0.7159
     24 O2          4.5752    4.0000   -1.3327 O.2       1 <0>        -0.5183
     25 N4          2.3745    3.9933   -1.2339 N.am      1 <0>        -0.6639
     26 H1          2.3570    4.9909   -1.3013 H         1 <0>         0.4425
     27 C18         1.2142    3.3122   -1.1355 C.2       1 <0>         0.5791
     28 O3          0.1480    3.8992   -1.1280 O.2       1 <0>        -0.4976
     29 C19         4.9639    1.3798   -1.1717 C.3       1 <0>         0.0274
     30 C20         5.9529    1.8363   -2.2461 C.3       1 <0>        -0.1308
     31 C21         5.2920    0.4594   -2.3490 C.3       1 <0>        -0.1824
     32 N5          2.6378   -0.1213   -0.9541 N.pl3     1 <0>        -0.7856
     33 F1         -1.9219   -4.4862   -0.8310 F         1 <0>        -0.1383
     34 H2         -5.5917   -2.3152   -2.2744 H         1 <0>         0.1351
     35 H3         -3.9262   -4.1159   -2.4591 H         1 <0>         0.1382
     36 H4         -1.9356   -2.6509    1.0227 H         1 <0>         0.1387
     37 H5         -3.5879   -0.8390    1.2148 H         1 <0>         0.1359
     38 H6         -7.4888   -1.6146   -0.2585 H         1 <0>         0.2027
     39 H7         -4.6782    4.7885   -0.4239 H         1 <0>         0.2119
     40 H8         -1.2532    2.3322    0.0340 H         1 <0>         0.1138
     41 H9         -1.4210    2.4106   -1.6633 H         1 <0>         0.1335
     42 H10         5.3691    1.1123   -0.1957 H         1 <0>         0.1447
     43 H11         5.6206    2.6075   -2.9410 H         1 <0>         0.1109
     44 H12         7.0087    1.8688   -1.9772 H         1 <0>         0.1190
     45 H13         5.9132   -0.4133   -2.1478 H         1 <0>         0.1225
     46 H14         4.5247    0.3246   -3.1114 H         1 <0>         0.1062
     47 H15         1.8413   -0.6747   -0.9663 H         1 <0>         0.4409
     48 H16         3.5129   -0.5325   -0.8755 H         1 <0>         0.4094
@<TRIPOS>BOND
     1    1    6 ar
     2    1    2 ar
     3    1   34 1
     4    2    3 ar
     5    2   35 1
     6    3    4 ar
     7    3   33 1
     8    4    5 ar
     9    4   36 1
    10    5    6 ar
    11    5   37 1
    12    6    7 1
    13    7   11 1
    14    7    8 2
    15    8    9 1
    16    8   38 1
    17    9   10 1
    18   10   15 ar
    19   10   11 ar
    20   11   12 ar
    21   12   13 ar
    22   12   16 1
    23   13   14 ar
    24   14   15 ar
    25   14   39 1
    26   16   17 1
    27   17   18 1
    28   17   40 1
    29   17   41 1
    30   18   19 2
    31   18   20 1
    32   20   27 1
    33   20   21 2
    34   21   22 1
    35   21   32 1
    36   22   23 am
    37   22   29 1
    38   23   24 2
    39   23   25 am
    40   25   26 1
    41   25   27 am
    42   27   28 2
    43   29   31 1
    44   29   30 1
    45   29   42 1
    46   30   31 1
    47   30   43 1
    48   30   44 1
    49   31   45 1
    50   31   46 1
    51   32   47 1
    52   32   48 1
@<TRIPOS>MOLECULE
ZINC28793650
   48    51     0     0     0
SMALL
USER_CHARGES
N'-[2-[(2S)-3-oxo-6-(trifluoromethyl)-4H-1,4-benzothiazin-2-yl]acetyl]-5-phenyl-isoxazole-3-carbohydrazide
@<TRIPOS>ATOM
      1 C1         10.8522   -7.1541    7.5378 C.ar      1 <0>        -0.0997
      2 C2         10.8502   -7.3528    6.1686 C.ar      1 <0>        -0.1176
      3 C3          9.9025   -6.7335    5.3801 C.ar      1 <0>        -0.0899
      4 C4          8.9448   -5.9048    5.9664 C.ar      1 <0>        -0.0330
      5 C5          8.9563   -5.7037    7.3474 C.ar      1 <0>        -0.0861
      6 C6          9.9053   -6.3342    8.1254 C.ar      1 <0>        -0.1172
      7 C7          7.9262   -5.2379    5.1274 C.2       1 <0>         0.0248
      8 C8          6.9312   -4.4035    5.5549 C.2       1 <0>        -0.1667
      9 C9          6.2494   -4.0499    4.3615 C.2       1 <0>        -0.0143
     10 N1          6.8637   -4.6759    3.3873 N.2       1 <0>        -0.3278
     11 O1          7.7947   -5.3317    3.7926 O.3       1 <0>         0.1352
     12 C10         5.0723   -3.1552    4.2413 C.2       1 <0>         0.6056
     13 O2          4.5962   -2.6410    5.2337 O.2       1 <0>        -0.5246
     14 N2          4.5309   -2.9128    3.0311 N.am      1 <0>        -0.5163
     15 N3          3.4191   -2.0679    2.9175 N.am      1 <0>        -0.5289
     16 C11         2.8777   -1.8255    1.7073 C.2       1 <0>         0.5245
     17 O3          3.3529   -2.3388    0.7166 O.2       1 <0>        -0.5205
     18 C12         1.6819   -0.9166    1.5852 C.3       1 <0>        -0.1284
     19 C13         1.2690   -0.8117    0.1157 C.3       1 <0>        -0.0942
     20 H1          0.9694   -1.8344   -0.1569 H         1 <0>         0.1681
     21 C14         0.0021   -0.0041    0.0020 C.2       1 <0>         0.5313
     22 O4         -1.0521   -0.5952   -0.1015 O.2       1 <0>        -0.5012
     23 N4         -0.0159    1.3249    0.0093 N.am      1 <0>        -0.6667
     24 C15         1.0900    2.1697    0.0033 C.ar      1 <0>         0.1591
     25 C16         0.9273    3.5031    0.3669 C.ar      1 <0>        -0.0920
     26 C17         2.0103    4.3594    0.3763 C.ar      1 <0>        -0.1471
     27 C18         3.2680    3.9032    0.0257 C.ar      1 <0>        -0.0798
     28 C19         3.4439    2.5815   -0.3408 C.ar      1 <0>        -0.0559
     29 C20         2.3603    1.7190   -0.3543 C.ar      1 <0>        -0.1227
     30 S1          2.5758    0.0315   -0.8280 S.3       1 <0>        -0.0033
     31 C21         1.8208    5.8012    0.7717 C.3       1 <0>         0.5098
     32 F1          3.0490    6.4679    0.7068 F         1 <0>        -0.1728
     33 F2          0.9134    6.4091   -0.1026 F         1 <0>        -0.1731
     34 F3          1.3239    5.8650    2.0779 F         1 <0>        -0.1738
     35 H2         11.5960   -7.6415    8.1507 H         1 <0>         0.1296
     36 H3         11.5919   -7.9943    5.7161 H         1 <0>         0.1322
     37 H4          9.9016   -6.8899    4.3114 H         1 <0>         0.1341
     38 H5          8.2208   -5.0598    7.8067 H         1 <0>         0.1316
     39 H6          9.9121   -6.1835    9.1948 H         1 <0>         0.1330
     40 H7          6.7149   -4.0870    6.5645 H         1 <0>         0.1864
     41 H8          4.9620   -3.3784    2.1325 H         1 <0>         0.4681
     42 H9          2.9880   -1.6023    3.8161 H         1 <0>         0.4605
     43 H10         0.8474   -1.3278    2.1721 H         1 <0>         0.1220
     44 H11         1.9404    0.0826    1.9657 H         1 <0>         0.1071
     45 H12        -0.9758    1.8619    0.0213 H         1 <0>         0.4439
     46 H13        -0.0504    3.8697    0.6428 H         1 <0>         0.1456
     47 H14         4.1111    4.5781    0.0378 H         1 <0>         0.1507
     48 H15         4.4247    2.2223   -0.6156 H         1 <0>         0.1502
@<TRIPOS>BOND
     1    1    6 ar
     2    1    2 ar
     3    1   35 1
     4    2    3 ar
     5    2   36 1
     6    3    4 ar
     7    3   37 1
     8    4    5 ar
     9    4    7 1
    10    5    6 ar
    11    5   38 1
    12    6   39 1
    13    7   11 1
    14    7    8 2
    15    8    9 1
    16    8   40 1
    17    9   10 2
    18    9   12 1
    19   10   11 1
    20   12   13 2
    21   12   14 am
    22   14   15 1
    23   14   41 1
    24   15   16 am
    25   15   42 1
    26   16   17 2
    27   16   18 1
    28   18   19 1
    29   18   43 1
    30   18   44 1
    31   19   20 1
    32   19   30 1
    33   19   21 1
    34   21   22 2
    35   21   23 am
    36   23   24 1
    37   23   45 1
    38   24   29 ar
    39   24   25 ar
    40   25   26 ar
    41   25   46 1
    42   26   27 ar
    43   26   31 1
    44   27   28 ar
    45   27   47 1
    46   28   29 ar
    47   28   48 1
    48   29   30 1
    49   31   32 1
    50   31   33 1
    51   31   34 1
@<TRIPOS>MOLECULE
ZINC41004895
   50    52     0     0     0
SMALL
USER_CHARGES

@<TRIPOS>ATOM
      1 C1          0.0210    1.8100   -1.1691 C.3       1 <0>        -0.1499
      2 C2          0.0079    0.2941   -0.9623 C.3       1 <0>         0.0624
      3 O1          0.7299   -0.3375   -2.0215 O.3       1 <0>        -0.3135
      4 C3          0.8144   -1.6945   -1.9878 C.ar      1 <0>         0.1062
      5 C4          1.8689   -2.3113   -1.3214 C.ar      1 <0>         0.1238
      6 C5          1.9507   -3.6940   -1.2900 C.ar      1 <0>        -0.1556
      7 C6          0.9858   -4.4585   -1.9199 C.ar      1 <0>        -0.0663
      8 C7         -0.0615   -3.8466   -2.5823 C.ar      1 <0>        -0.0915
      9 C8         -0.1527   -2.4663   -2.6124 C.ar      1 <0>        -0.0769
     10 Br1        -1.5918   -1.6330   -3.5127 Br        1 <0>        -0.0198
     11 C9          1.0768   -5.9624   -1.8844 C.3       1 <0>         0.2851
     12 H1          1.9617   -6.2597   -1.3218 H         1 <0>         0.1163
     13 C10        -0.1521   -6.5240   -1.2205 C.2       1 <0>        -0.2943
     14 C11        -1.1185   -7.1659   -1.8927 C.2       1 <0>         0.2150
     15 N1         -1.0535   -7.3721   -3.2489 N.pl3     1 <0>        -0.6103
     16 C12         0.1622   -7.1314   -3.8742 C.2       1 <0>         0.5080
     17 N2          1.1711   -6.4768   -3.2480 N.pl3     1 <0>        -0.3835
     18 N3          2.2312   -6.4186   -4.1514 N.2       1 <0>        -0.2650
     19 C13         1.8251   -7.0170   -5.2505 C.2       1 <0>         0.2207
     20 N4          0.5667   -7.4466   -5.0746 N.2       1 <0>        -0.5439
     21 S1          2.7807   -7.2220   -6.7167 S.3       1 <0>         0.0188
     22 C14         1.6706   -8.1103   -7.8434 C.3       1 <0>        -0.1088
     23 C15         2.3848   -8.3568   -9.1738 C.3       1 <0>        -0.1399
     24 C16        -2.3157   -7.6787   -1.1345 C.3       1 <0>        -0.1337
     25 C17        -0.2943   -6.3665    0.1786 C.2       1 <0>         0.5952
     26 O2          0.3769   -7.0410    0.9385 O.2       1 <0>        -0.5310
     27 N5         -1.1726   -5.4702    0.6701 N.am      1 <0>        -0.8452
     28 O3          2.8175   -1.5585   -0.7027 O.3       1 <0>        -0.2982
     29 C18         3.8707   -2.2595   -0.0384 C.3       1 <0>         0.0206
     30 H2          1.0507    2.1675   -1.1705 H         1 <0>         0.0667
     31 H3         -0.4485    2.0506   -2.1229 H         1 <0>         0.0664
     32 H4         -0.5298    2.2917   -0.3612 H         1 <0>         0.0766
     33 H5          0.4774    0.0534   -0.0085 H         1 <0>         0.0551
     34 H6         -1.0218   -0.0635   -0.9609 H         1 <0>         0.0545
     35 H7          2.7683   -4.1749   -0.7737 H         1 <0>         0.1439
     36 H8         -0.8127   -4.4471   -3.0737 H         1 <0>         0.1300
     37 H9         -1.8269   -7.6745   -3.7503 H         1 <0>         0.4411
     38 H10         1.3902   -9.0653   -7.3991 H         1 <0>         0.0930
     39 H11         0.7753   -7.5133   -8.0168 H         1 <0>         0.0930
     40 H12         1.7178   -8.8906   -9.8508 H         1 <0>         0.0801
     41 H13         2.6653   -7.4018   -9.6180 H         1 <0>         0.0675
     42 H14         3.2802   -8.9537   -9.0003 H         1 <0>         0.0674
     43 H15        -3.0493   -6.8793   -1.0301 H         1 <0>         0.0984
     44 H16        -2.7610   -8.5116   -1.6787 H         1 <0>         0.0893
     45 H17        -2.0028   -8.0161   -0.1464 H         1 <0>         0.0965
     46 H18        -1.7073   -4.9329    0.0648 H         1 <0>         0.4023
     47 H19        -1.2701   -5.3623    1.6292 H         1 <0>         0.4060
     48 H20         4.5570   -1.5423    0.4119 H         1 <0>         0.1075
     49 H21         3.4491   -2.8965    0.7392 H         1 <0>         0.0589
     50 H22         4.4092   -2.8744   -0.7594 H         1 <0>         0.0609
@<TRIPOS>BOND
     1    1    2 1
     2    1   30 1
     3    1   31 1
     4    1   32 1
     5    2    3 1
     6    2   33 1
     7    2   34 1
     8    3    4 1
     9    4    9 ar
    10    4    5 ar
    11    5    6 ar
    12    5   28 1
    13    6    7 ar
    14    6   35 1
    15    7    8 ar
    16    7   11 1
    17    8    9 ar
    18    8   36 1
    19    9   10 1
    20   11   12 1
    21   11   17 1
    22   11   13 1
    23   13   14 2
    24   13   25 1
    25   14   15 1
    26   14   24 1
    27   15   16 1
    28   15   37 1
    29   16   20 2
    30   16   17 1
    31   17   18 1
    32   18   19 2
    33   19   20 1
    34   19   21 1
    35   21   22 1
    36   22   23 1
    37   22   38 1
    38   22   39 1
    39   23   40 1
    40   23   41 1
    41   23   42 1
    42   24   43 1
    43   24   44 1
    44   24   45 1
    45   25   26 2
    46   25   27 am
    47   27   46 1
    48   27   47 1
    49   28   29 1
    50   29   48 1
    51   29   49 1
    52   29   50 1
@<TRIPOS>MOLECULE
ZINC60017258
   60    62     0     0     0
SMALL
USER_CHARGES

@<TRIPOS>ATOM
      1 C1          0.2947   -1.4862    1.5415 C.3       1 <0>        -0.1519
      2 C2          0.0760   -0.6332    0.2903 C.3       1 <0>        -0.1110
      3 C3         -1.4118   -0.6235   -0.0667 C.3       1 <0>        -0.0308
      4 C4         -1.8709   -2.0500   -0.3872 C.3       1 <0>        -0.1238
      5 C5         -1.1304   -2.5310   -1.6396 C.3       1 <0>        -0.1451
      6 C6         -1.3681   -1.5537   -2.7603 C.2       1 <0>         0.5232
      7 O1         -1.3549   -1.9488   -3.9063 O.2       1 <0>        -0.5005
      8 N1         -1.5945   -0.2545   -2.5151 N.am      1 <0>        -0.6746
      9 C7         -1.6341    0.2501   -1.2729 C.2       1 <0>         0.5301
     10 O2         -1.8533    1.4324   -1.1183 O.2       1 <0>        -0.4823
     11 C8         -2.2053   -0.0871    1.0968 C.ar      1 <0>        -0.0890
     12 C9         -3.2417   -0.8332    1.6275 C.ar      1 <0>        -0.0928
     13 C10        -3.9712   -0.3445    2.6934 C.ar      1 <0>        -0.1461
     14 C11        -3.6626    0.8978    3.2327 C.ar      1 <0>         0.1518
     15 C12        -2.6208    1.6445    2.6976 C.ar      1 <0>        -0.1201
     16 C13        -1.8919    1.1475    1.6350 C.ar      1 <0>        -0.0619
     17 N2         -4.3995    1.3958    4.3116 N.am      1 <0>        -0.6689
     18 C14        -4.6130    2.7216    4.4271 C.2       1 <0>         0.5460
     19 O3         -4.2458    3.4762    3.5456 O.2       1 <0>        -0.5154
     20 C15        -5.2867    3.2538    5.6127 C.2       1 <0>        -0.1982
     21 C16        -5.5004    4.5801    5.7283 C.2       1 <0>        -0.0237
     22 C17        -6.1778    5.1153    6.9205 C.ar      1 <0>        -0.0195
     23 C18        -6.5961    4.2521    7.9380 C.ar      1 <0>        -0.1243
     24 C19        -7.2301    4.7612    9.0517 C.ar      1 <0>        -0.0188
     25 C20        -7.4527    6.1225    9.1640 C.ar      1 <0>        -0.6699
     26 C21        -7.0416    6.9833    8.1612 C.ar      1 <0>        -0.0222
     27 C22        -6.4012    6.4902    7.0440 C.ar      1 <0>        -0.1146
     28 S1         -8.2641    6.7631   10.5908 S.o2      1 <0>         2.6944
     29 O4         -8.8402    8.0043   10.2075 O.2       1 <0>        -0.9525
     30 O5         -9.0361    5.6994   11.1309 O.2       1 <0>        -0.9557
     31 N3         -7.0909    7.1105   11.7067 N.pl3     1 <0>        -1.1167
     32 C23        -6.1055    8.1590   11.4313 C.3       1 <0>         0.1091
     33 C24        -5.3886    8.5385   12.7286 C.3       1 <0>        -0.1611
     34 H1          1.3501   -1.4687    1.8133 H         1 <0>         0.0624
     35 H2         -0.2988   -1.0850    2.3630 H         1 <0>         0.0641
     36 H3         -0.0115   -2.5127    1.3396 H         1 <0>         0.0615
     37 H4          0.4102    0.3863    0.4826 H         1 <0>         0.0776
     38 H5          0.6459   -1.0520   -0.5391 H         1 <0>         0.0731
     39 H6         -1.6374   -2.7066    0.4509 H         1 <0>         0.1053
     40 H7         -2.9450   -2.0559   -0.5722 H         1 <0>         0.0846
     41 H8         -0.0625   -2.5925   -1.4303 H         1 <0>         0.1159
     42 H9         -1.5031   -3.5138   -1.9282 H         1 <0>         0.1188
     43 H10        -1.7350    0.3437   -3.2657 H         1 <0>         0.4137
     44 H11        -3.4811   -1.7991    1.2077 H         1 <0>         0.1325
     45 H12        -4.7809   -0.9273    3.1070 H         1 <0>         0.1281
     46 H13        -2.3783    2.6108    3.1147 H         1 <0>         0.1357
     47 H14        -1.0788    1.7256    1.2213 H         1 <0>         0.1287
     48 H15        -4.7570    0.7872    4.9769 H         1 <0>         0.4131
     49 H16        -5.6126    2.5842    6.3949 H         1 <0>         0.1363
     50 H17        -5.1745    5.2497    4.9461 H         1 <0>         0.1446
     51 H18        -6.4234    3.1895    7.8516 H         1 <0>         0.1384
     52 H19        -7.5541    4.0957    9.8383 H         1 <0>         0.1452
     53 H20        -7.2189    8.0444    8.2560 H         1 <0>         0.1459
     54 H21        -6.0770    7.1636    6.2644 H         1 <0>         0.1412
     55 H22        -7.0562    6.6198   12.5427 H         1 <0>         0.4202
     56 H23        -5.3774    7.7923   10.7078 H         1 <0>         0.0654
     57 H24        -6.6111    9.0353   11.0258 H         1 <0>         0.0818
     58 H25        -6.1167    8.9052   13.4522 H         1 <0>         0.0657
     59 H26        -4.8830    7.6622   13.1342 H         1 <0>         0.0631
     60 H27        -4.6554    9.3186   12.5237 H         1 <0>         0.0742
@<TRIPOS>BOND
     1    1    2 1
     2    1   34 1
     3    1   35 1
     4    1   36 1
     5    2    3 1
     6    2   37 1
     7    2   38 1
     8    3    9 1
     9    3    4 1
    10    3   11 1
    11    4    5 1
    12    4   39 1
    13    4   40 1
    14    5    6 1
    15    5   41 1
    16    5   42 1
    17    6    7 2
    18    6    8 am
    19    8    9 am
    20    8   43 1
    21    9   10 2
    22   11   16 ar
    23   11   12 ar
    24   12   13 ar
    25   12   44 1
    26   13   14 ar
    27   13   45 1
    28   14   15 ar
    29   14   17 1
    30   15   16 ar
    31   15   46 1
    32   16   47 1
    33   17   18 am
    34   17   48 1
    35   18   19 2
    36   18   20 1
    37   20   21 2
    38   20   49 1
    39   21   22 1
    40   21   50 1
    41   22   27 ar
    42   22   23 ar
    43   23   24 ar
    44   23   51 1
    45   24   25 ar
    46   24   52 1
    47   25   26 ar
    48   25   28 1
    49   26   27 ar
    50   26   53 1
    51   27   54 1
    52   28   29 2
    53   28   30 2
    54   28   31 1
    55   31   32 1
    56   31   55 1
    57   32   33 1
    58   32   56 1
    59   32   57 1
    60   33   58 1
    61   33   59 1
    62   33   60 1
@<TRIPOS>MOLECULE
ZINC39584760
   59    62     0     0     0
SMALL
USER_CHARGES

@<TRIPOS>ATOM
      1 C1         -0.1097    1.1967   -0.6430 C.3       1 <0>        -0.1863
      2 C2         -0.0837   -0.3011   -0.3318 C.3       1 <0>        -0.0065
      3 N1          0.5923   -0.5225    0.9535 N.4       1 <0>        -0.4013
      4 C3          0.6218   -1.9721    1.2836 C.3       1 <0>         0.2104
      5 H1          0.7814   -2.5693    0.3858 H         1 <0>         0.1358
      6 N2          1.7870   -2.0780    2.2003 N.3       1 <0>        -0.4695
      7 N3          2.7720   -1.1423    1.6511 N.3       1 <0>        -0.4766
      8 C4          2.0219   -0.1464    0.8595 C.3       1 <0>         0.1569
      9 H2          2.3477   -0.1736   -0.1804 H         1 <0>         0.1750
     10 S1          2.2747    1.5129    1.5476 S.3       1 <0>         0.0000
     11 C5          1.7269    1.3617    3.2703 C.3       1 <0>        -0.1596
     12 C6          1.8862    2.6887    3.9664 C.2       1 <0>         0.5532
     13 O1          2.3259    3.6424    3.3602 O.2       1 <0>        -0.4528
     14 N4          1.5400    2.8155    5.2628 N.am      1 <0>        -0.5590
     15 N5          1.6882    4.0493    5.9099 N.2       1 <0>        -0.1415
     16 C7          1.3518    4.1724    7.1692 C.2       1 <0>         0.0609
     17 C8          1.5001    5.4072    7.8169 C.2       1 <0>         0.1072
     18 C9          1.1975    5.7038    9.1437 C.ar      1 <0>        -0.1292
     19 C10         0.6800    4.9244   10.2020 C.ar      1 <0>        -0.0366
     20 C11         0.4815    5.4895   11.4193 C.ar      1 <0>        -0.1286
     21 C12         0.7772    6.8346   11.6598 C.ar      1 <0>         0.0427
     22 C13         1.2759    7.6414   10.6928 C.ar      1 <0>        -0.1969
     23 C14         1.5110    7.1220    9.3918 C.ar      1 <0>         0.3161
     24 N6          1.9799    7.6877    8.2996 N.pl3     1 <0>        -0.5815
     25 C15         2.0282    6.6942    7.2226 C.3       1 <0>         0.0715
     26 C16        -0.6489   -2.3870    1.9793 C.ar      1 <0>        -0.1919
     27 C17        -1.5184   -3.2667    1.3614 C.ar      1 <0>        -0.0385
     28 C18        -2.6842   -3.6483    1.9968 C.ar      1 <0>        -0.1461
     29 C19        -2.9819   -3.1484    3.2562 C.ar      1 <0>         0.1765
     30 C20        -2.1076   -2.2662    3.8743 C.ar      1 <0>        -0.2110
     31 C21        -0.9406   -1.8918    3.2368 C.ar      1 <0>        -0.0394
     32 O2         -4.1283   -3.5219    3.8832 O.3       1 <0>        -0.3029
     33 C22        -4.3698   -2.9677    5.1780 C.3       1 <0>         0.0209
     34 H3          0.9114    1.5738   -0.6998 H         1 <0>         0.0837
     35 H4         -0.6113    1.3610   -1.5967 H         1 <0>         0.1125
     36 H5         -0.6478    1.7224    0.1459 H         1 <0>         0.0836
     37 H6         -1.1048   -0.6782   -0.2750 H         1 <0>         0.1405
     38 H7          0.4544   -0.8267   -1.1207 H         1 <0>         0.1332
     39 H8          2.1511   -3.0189    2.2151 H         1 <0>         0.3903
     40 H9          3.4485   -1.6243    1.0784 H         1 <0>         0.3656
     41 H10         0.6790    1.0627    3.2934 H         1 <0>         0.1171
     42 H11         2.3305    0.6099    3.7788 H         1 <0>         0.1531
     43 H12         1.1883    2.0526    5.7477 H         1 <0>         0.4062
     44 H13         0.9602    3.3230    7.7092 H         1 <0>         0.1606
     45 H14         0.4428    3.8828   10.0426 H         1 <0>         0.1570
     46 H15         0.0850    4.8856   12.2221 H         1 <0>         0.1590
     47 H16         0.6028    7.2421   12.6447 H         1 <0>         0.1645
     48 H17         1.4944    8.6764   10.9105 H         1 <0>         0.1642
     49 H18         3.0544    6.5567    6.8815 H         1 <0>         0.1793
     50 H19         1.3960    7.0119    6.3934 H         1 <0>         0.1780
     51 H20        -1.2862   -3.6556    0.3809 H         1 <0>         0.1408
     52 H21        -3.3634   -4.3349    1.5134 H         1 <0>         0.1492
     53 H22        -2.3372   -1.8757    4.8547 H         1 <0>         0.1416
     54 H23        -0.2575   -1.2085    3.7194 H         1 <0>         0.1292
     55 H24        -4.4164   -1.8811    5.1052 H         1 <0>         0.0611
     56 H25        -5.3156   -3.3468    5.5649 H         1 <0>         0.1138
     57 H26        -3.5615   -3.2523    5.8516 H         1 <0>         0.0633
     58 H27         2.2540    8.6148    8.2209 H         1 <0>         0.4574
     59 H28         0.1369   -0.0003    1.6869 H         1 <0>         0.4239
@<TRIPOS>BOND
     1    1    2 1
     2    1   34 1
     3    1   35 1
     4    1   36 1
     5    2    3 1
     6    2   37 1
     7    2   38 1
     8    3    8 1
     9    3    4 1
    10    3   59 1
    11    4    5 1
    12    4    6 1
    13    4   26 1
    14    6    7 1
    15    6   39 1
    16    7    8 1
    17    7   40 1
    18    8    9 1
    19    8   10 1
    20   10   11 1
    21   11   12 1
    22   11   41 1
    23   11   42 1
    24   12   13 2
    25   12   14 am
    26   14   15 1
    27   14   43 1
    28   15   16 2
    29   16   17 1
    30   16   44 1
    31   17   25 1
    32   17   18 2
    33   18   23 ar
    34   18   19 ar
    35   19   20 ar
    36   19   45 1
    37   20   21 ar
    38   20   46 1
    39   21   22 ar
    40   21   47 1
    41   22   23 ar
    42   22   48 1
    43   23   24 2
    44   24   25 1
    45   24   58 1
    46   25   49 1
    47   25   50 1
    48   26   31 ar
    49   26   27 ar
    50   27   28 ar
    51   27   51 1
    52   28   29 ar
    53   28   52 1
    54   29   30 ar
    55   29   32 1
    56   30   31 ar
    57   30   53 1
    58   31   54 1
    59   32   33 1
    60   33   55 1
    61   33   56 1
    62   33   57 1
@<TRIPOS>MOLECULE
ZINC39664879
   75    79     0     0     0
SMALL
USER_CHARGES

@<TRIPOS>ATOM
      1 C1          0.5811    0.3858   -3.8253 C.3       1 <0>        -0.0480
      2 N1         -0.2553   -0.2043   -2.7717 N.4       1 <0>        -0.3838
      3 C2         -0.9468   -1.3875   -3.3007 C.3       1 <0>        -0.0571
      4 C3          0.5912   -0.5982   -1.6376 C.3       1 <0>        -0.0222
      5 C4         -0.2921   -1.0806   -0.4852 C.3       1 <0>         0.1736
      6 H1         -0.9506   -1.8737   -0.8395 H         1 <0>         0.1207
      7 C5         -1.1210    0.0689    0.0275 C.ar      1 <0>        -0.1490
      8 C6         -0.5601    0.9972    0.8846 C.ar      1 <0>        -0.1082
      9 C7         -1.3204    2.0515    1.3550 C.ar      1 <0>        -0.1036
     10 C8         -2.6414    2.1778    0.9678 C.ar      1 <0>        -0.0911
     11 C9         -3.2020    1.2500    0.1100 C.ar      1 <0>        -0.0999
     12 C10        -2.4405    0.1981   -0.3637 C.ar      1 <0>        -0.1195
     13 N2          0.5528   -1.5938    0.5960 N.am      1 <0>        -0.7223
     14 C11         0.9340   -2.8865    0.5974 C.2       1 <0>         0.5233
     15 O1          0.6465   -3.6046   -0.3367 O.2       1 <0>        -0.5010
     16 C12         1.7176   -3.4397    1.7598 C.3       1 <0>        -0.1142
     17 H2          1.3886   -2.9798    2.6916 H         1 <0>         0.1252
     18 C13         1.5602   -4.9751    1.8327 C.3       1 <0>         0.1096
     19 N3          2.7382   -5.5071    1.1079 N.am      1 <0>        -0.6161
     20 C14         3.8516   -4.6137    1.5080 C.3       1 <0>         0.1076
     21 C15         3.2232   -3.2066    1.5500 C.3       1 <0>        -0.0752
     22 C16         3.4667   -2.4815    0.2299 C.3       1 <0>        -0.1469
     23 C17         4.9655   -2.2108    0.0707 C.3       1 <0>        -0.0106
     24 N4          5.4391   -1.3946    1.1951 N.4       1 <0>        -0.5045
     25 C18         5.2864   -2.1367    2.4523 C.3       1 <0>        -0.0124
     26 C19         3.8012   -2.4046    2.7120 C.3       1 <0>        -0.1344
     27 C20         2.7864   -6.5644    0.2735 C.2       1 <0>         0.6396
     28 O2          3.8395   -6.8796   -0.2492 O.2       1 <0>        -0.5098
     29 C21         1.5712   -7.3344   -0.0044 C.2       1 <0>        -0.0957
     30 C22         1.4815   -8.4346   -0.8287 C.2       1 <0>        -0.0935
     31 C23         0.1464   -8.8505   -0.8028 C.2       1 <0>        -0.2039
     32 C24        -0.5234   -7.9983    0.0274 C.2       1 <0>         0.0799
     33 O3          0.3457   -7.0929    0.5070 O.3       1 <0>        -0.1556
     34 C25        -1.9634   -8.0643    0.3495 C.ar      1 <0>        -0.0377
     35 C26        -2.7615   -9.0655   -0.2078 C.ar      1 <0>        -0.0868
     36 C27        -4.1055   -9.1216    0.0977 C.ar      1 <0>        -0.1119
     37 C28        -4.6631   -8.1888    0.9541 C.ar      1 <0>        -0.0994
     38 C29        -3.8782   -7.1938    1.5095 C.ar      1 <0>        -0.1194
     39 C30        -2.5316   -7.1294    1.2172 C.ar      1 <0>        -0.0980
     40 H3         -0.0470    0.6781   -4.6668 H         1 <0>         0.1315
     41 H4          1.0943    1.2637   -3.4328 H         1 <0>         0.1234
     42 H5          1.3167   -0.3465   -4.1581 H         1 <0>         0.1234
     43 H6         -1.5213   -1.8593   -2.5035 H         1 <0>         0.1230
     44 H7         -1.6194   -1.0864   -4.1039 H         1 <0>         0.1325
     45 H8         -0.2130   -2.0947   -3.6872 H         1 <0>         0.1278
     46 H9          1.2590   -1.4030   -1.9449 H         1 <0>         0.1340
     47 H10         1.1808    0.2579   -1.3097 H         1 <0>         0.1309
     48 H11         0.4720    0.8985    1.1871 H         1 <0>         0.1206
     49 H12        -0.8824    2.7763    2.0252 H         1 <0>         0.1356
     50 H13        -3.2356    3.0012    1.3358 H         1 <0>         0.1380
     51 H14        -4.2342    1.3485   -0.1922 H         1 <0>         0.1386
     52 H15        -2.8774   -0.5247   -1.0369 H         1 <0>         0.1278
     53 H16         0.8378   -1.0033    1.3107 H         1 <0>         0.4091
     54 H17         1.5696   -5.3092    2.8702 H         1 <0>         0.0950
     55 H18         0.6388   -5.2864    1.3407 H         1 <0>         0.1121
     56 H19         4.2270   -4.8912    2.4930 H         1 <0>         0.0921
     57 H20         4.6531   -4.6508    0.7702 H         1 <0>         0.0929
     58 H21         3.1194   -3.1025   -0.5958 H         1 <0>         0.1195
     59 H22         2.9240   -1.5362    0.2284 H         1 <0>         0.0893
     60 H23         5.5059   -3.1573    0.0561 H         1 <0>         0.1389
     61 H24         5.1410   -1.6782   -0.8639 H         1 <0>         0.1381
     62 H25         6.4123   -1.1664    1.0569 H         1 <0>         0.4386
     63 H26         5.8194   -3.0848    2.3813 H         1 <0>         0.1368
     64 H27         5.6983   -1.5494    3.2730 H         1 <0>         0.1449
     65 H28         3.2703   -1.4567    2.7996 H         1 <0>         0.0970
     66 H29         3.6899   -2.9715    3.6363 H         1 <0>         0.1268
     67 H30         2.2867   -8.8882   -1.3874 H         1 <0>         0.1661
     68 H31        -0.2754   -9.6878   -1.3388 H         1 <0>         0.1641
     69 H32        -2.3276   -9.7940   -0.8767 H         1 <0>         0.1330
     70 H33        -4.7241   -9.8952   -0.3329 H         1 <0>         0.1362
     71 H34        -5.7160   -8.2373    1.1899 H         1 <0>         0.1319
     72 H35        -4.3199   -6.4686    2.1769 H         1 <0>         0.1290
     73 H36        -1.9192   -6.3549    1.6549 H         1 <0>         0.1214
     74 H37         4.9001   -0.5429    1.2412 H         1 <0>         0.4250
     75 H38        -0.9362    0.4735   -2.4637 H         1 <0>         0.4274
@<TRIPOS>BOND
     1    1    2 1
     2    1   40 1
     3    1   41 1
     4    1   42 1
     5    2    3 1
     6    2    4 1
     7    2   75 1
     8    3   43 1
     9    3   44 1
    10    3   45 1
    11    4    5 1
    12    4   46 1
    13    4   47 1
    14    5    6 1
    15    5    7 1
    16    5   13 1
    17    7   12 ar
    18    7    8 ar
    19    8    9 ar
    20    8   48 1
    21    9   10 ar
    22    9   49 1
    23   10   11 ar
    24   10   50 1
    25   11   12 ar
    26   11   51 1
    27   12   52 1
    28   13   14 am
    29   13   53 1
    30   14   15 2
    31   14   16 1
    32   16   17 1
    33   16   21 1
    34   16   18 1
    35   18   19 1
    36   18   54 1
    37   18   55 1
    38   19   20 1
    39   19   27 am
    40   20   21 1
    41   20   56 1
    42   20   57 1
    43   21   26 1
    44   21   22 1
    45   22   23 1
    46   22   58 1
    47   22   59 1
    48   23   24 1
    49   23   60 1
    50   23   61 1
    51   24   25 1
    52   24   62 1
    53   24   74 1
    54   25   26 1
    55   25   63 1
    56   25   64 1
    57   26   65 1
    58   26   66 1
    59   27   28 2
    60   27   29 1
    61   29   33 1
    62   29   30 2
    63   30   31 1
    64   30   67 1
    65   31   32 2
    66   31   68 1
    67   32   33 1
    68   32   34 1
    69   34   39 ar
    70   34   35 ar
    71   35   36 ar
    72   35   69 1
    73   36   37 ar
    74   36   70 1
    75   37   38 ar
    76   37   71 1
    77   38   39 ar
    78   38   72 1
    79   39   73 1
@<TRIPOS>MOLECULE
ZINC39932097
   54    57     0     0     0
SMALL
USER_CHARGES

@<TRIPOS>ATOM
      1 C1         -0.1487    1.7167   -0.1553 C.3       1 <0>        -0.1687
      2 C2         -0.0717    0.1896   -0.0993 C.3       1 <0>         0.1426
      3 H1         -1.0796   -0.2243   -0.0726 H         1 <0>         0.0965
      4 C3          0.6884   -0.2369    1.1582 C.3       1 <0>        -0.1300
      5 C4          0.6581   -1.7617    1.2799 C.3       1 <0>        -0.0302
      6 C5          1.4067   -2.1818    2.5185 C.2       1 <0>        -0.0299
      7 C6          0.8740   -2.3417    3.7433 C.2       1 <0>        -0.1999
      8 C7          1.9268   -2.7394    4.5991 C.2       1 <0>        -0.2099
      9 C8          3.0398   -2.7988    3.8461 C.2       1 <0>        -0.0393
     10 O1          2.7177   -2.4656    2.5855 O.3       1 <0>        -0.1815
     11 N1          0.6292   -0.3078   -1.2857 N.am      1 <0>        -0.7171
     12 C9         -0.0488   -0.5131   -2.4323 C.2       1 <0>         0.5479
     13 O2         -1.2422   -0.2854   -2.4820 O.2       1 <0>        -0.5197
     14 C10         0.6569   -1.0140   -3.6270 C.ar      1 <0>        -0.1165
     15 C11         2.0278   -1.2817   -3.5698 C.ar      1 <0>        -0.0701
     16 C12         2.6832   -1.7493   -4.6858 C.ar      1 <0>        -0.1227
     17 C13         1.9826   -1.9554   -5.8710 C.ar      1 <0>         0.1242
     18 C14         0.6174   -1.6892   -5.9313 C.ar      1 <0>        -0.1593
     19 C15        -0.0449   -1.2274   -4.8170 C.ar      1 <0>        -0.0390
     20 N2          2.6477   -2.4275   -6.9971 N.pl3     1 <0>        -1.0232
     21 S1          1.9924   -3.6580   -7.8907 S.o2      1 <0>         2.6518
     22 O3          0.6600   -3.2714   -8.1985 O.2       1 <0>        -0.8791
     23 O4          2.9434   -3.9811   -8.8959 O.2       1 <0>        -0.8765
     24 C16         1.8776   -5.0644   -6.8354 C.ar      1 <0>        -0.5419
     25 C17         3.0427   -5.9266   -6.6775 C.ar      1 <0>         0.1484
     26 C18         3.0220   -7.0195   -5.8840 C.ar      1 <0>        -0.1420
     27 C19         1.8012   -7.3592   -5.1562 C.ar      1 <0>         0.3731
     28 N3          1.4529   -8.3149   -4.3319 N.am      1 <0>        -0.4949
     29 C20         0.1450   -8.1120   -3.9598 C.2       1 <0>         0.6448
     30 O5         -0.4824   -8.8210   -3.2018 O.2       1 <0>        -0.1973
     31 N4         -0.3449   -6.9845   -4.5756 N.am      1 <0>        -0.4540
     32 C21         0.6044   -6.4735   -5.3183 C.ar      1 <0>         0.3960
     33 C22         0.7147   -5.3079   -6.1930 C.ar      1 <0>        -0.0116
     34 H2          0.8592    2.1306   -0.1821 H         1 <0>         0.0613
     35 H3         -0.6902    2.0205   -1.0512 H         1 <0>         0.0652
     36 H4         -0.6702    2.0868    0.7274 H         1 <0>         0.0749
     37 H5          1.7222    0.1018    1.0903 H         1 <0>         0.0771
     38 H6          0.2175    0.2070    2.0354 H         1 <0>         0.0938
     39 H7         -0.3758   -2.1003    1.3478 H         1 <0>         0.0931
     40 H8          1.1289   -2.2056    0.4027 H         1 <0>         0.0717
     41 H9         -0.1595   -2.1940    4.0200 H         1 <0>         0.1490
     42 H10         1.8518   -2.9540    5.6549 H         1 <0>         0.1519
     43 H11         4.0247   -3.0719    4.1951 H         1 <0>         0.2056
     44 H12         1.5812   -0.4894   -1.2461 H         1 <0>         0.3990
     45 H13         2.5720   -1.1214   -2.6508 H         1 <0>         0.1414
     46 H14         3.7423   -1.9563   -4.6422 H         1 <0>         0.1459
     47 H15         0.0767   -1.8498   -6.8523 H         1 <0>         0.1692
     48 H16        -1.1049   -1.0256   -4.8630 H         1 <0>         0.1558
     49 H17         3.4957   -2.0361   -7.2592 H         1 <0>         0.4491
     50 H18         3.9496   -5.6843   -7.2115 H         1 <0>         0.2330
     51 H19         3.9019   -7.6384   -5.7884 H         1 <0>         0.2345
     52 H20        -0.1293   -4.6476   -6.3278 H         1 <0>         0.2405
     53 H21        -1.2416   -6.6281   -4.4765 H         1 <0>         0.5093
     54 H22         2.0210   -9.0428   -4.0345 H         1 <0>         0.5078
@<TRIPOS>BOND
     1    1    2 1
     2    1   34 1
     3    1   35 1
     4    1   36 1
     5    2    3 1
     6    2    4 1
     7    2   11 1
     8    4    5 1
     9    4   37 1
    10    4   38 1
    11    5    6 1
    12    5   39 1
    13    5   40 1
    14    6   10 1
    15    6    7 2
    16    7    8 1
    17    7   41 1
    18    8    9 2
    19    8   42 1
    20    9   10 1
    21    9   43 1
    22   11   12 am
    23   11   44 1
    24   12   13 2
    25   12   14 1
    26   14   19 ar
    27   14   15 ar
    28   15   16 ar
    29   15   45 1
    30   16   17 ar
    31   16   46 1
    32   17   18 ar
    33   17   20 1
    34   18   19 ar
    35   18   47 1
    36   19   48 1
    37   20   21 1
    38   20   49 1
    39   21   22 2
    40   21   23 2
    41   21   24 1
    42   24   33 ar
    43   24   25 ar
    44   25   26 ar
    45   25   50 1
    46   26   27 ar
    47   26   51 1
    48   27   32 ar
    49   27   28 2
    50   28   29 am
    51   28   54 1
    52   29   30 2
    53   29   31 am
    54   31   32 2
    55   31   53 1
    56   32   33 ar
    57   33   52 1
@<TRIPOS>MOLECULE
ZINC64053723
   65    68     0     0     0
SMALL
USER_CHARGES

@<TRIPOS>ATOM
      1 C1          0.2251    0.3919   -1.0818 C.3       1 <0>         0.0192
      2 O1          0.3213   -1.0161   -0.8573 O.3       1 <0>        -0.3048
      3 C2          0.8782   -1.4172    0.3156 C.ar      1 <0>         0.2090
      4 C3          1.3177   -0.4741    1.2342 C.ar      1 <0>        -0.2366
      5 C4          1.8840   -0.8813    2.4267 C.ar      1 <0>        -0.0118
      6 C5          2.0147   -2.2280    2.7080 C.ar      1 <0>        -0.2360
      7 C6          1.5769   -3.1747    1.7930 C.ar      1 <0>         0.1905
      8 C7          1.0026   -2.7685    0.5981 C.ar      1 <0>        -0.2430
      9 O2          1.7058   -4.4988    2.0701 O.3       1 <0>        -0.3238
     10 C8          1.2334   -5.4173    1.0825 C.3       1 <0>         0.0235
     11 C9          2.6338   -2.6687    4.0094 C.3       1 <0>         0.0516
     12 N1          4.0355   -3.0449    3.7822 N.4       1 <0>        -0.3850
     13 C10         4.8096   -1.8536    3.4000 C.3       1 <0>        -0.0257
     14 C11         6.1946   -2.2972    2.9250 C.3       1 <0>         0.0872
     15 N2          6.7980   -3.1869    3.9140 N.am      1 <0>        -0.7106
     16 C12         6.0828   -3.7988    4.8648 C.2       1 <0>         0.5262
     17 O3          6.6538   -4.5410    5.6354 O.2       1 <0>        -0.4984
     18 C13         4.6010   -3.6034    5.0167 C.3       1 <0>         0.0327
     19 H1          4.4096   -2.9194    5.8436 H         1 <0>         0.1778
     20 C14         3.9395   -4.9508    5.3133 C.3       1 <0>        -0.1645
     21 C15         4.2317   -5.9119    4.1900 C.2       1 <0>         0.5198
     22 O4          4.9894   -5.5911    3.2991 O.2       1 <0>        -0.5376
     23 N3          3.6510   -7.1281    4.1755 N.am      1 <0>        -0.7152
     24 C16         3.9350   -8.0624    3.0835 C.3       1 <0>         0.1228
     25 C17         3.1547   -9.3595    3.3062 C.3       1 <0>        -0.1040
     26 C18         3.4469  -10.3207    2.1828 C.2       1 <0>         0.0526
     27 C19         4.3711  -11.3082    2.1773 C.ar      1 <0>        -0.1549
     28 C20         5.3444  -11.7648    3.1766 C.ar      1 <0>        -0.0226
     29 C21         6.1564  -12.8033    2.8747 C.ar      1 <0>        -0.1411
     30 C22         6.0922  -13.4528    1.6343 C.ar      1 <0>         0.0580
     31 C23         5.2245  -13.0907    0.6657 C.ar      1 <0>        -0.2090
     32 C24         4.3229  -12.0110    0.8753 C.ar      1 <0>         0.3300
     33 N4          3.4046  -11.4787    0.1059 N.pl3     1 <0>        -0.5830
     34 C25         2.7615  -10.3806    0.8360 C.3       1 <0>         0.0629
     35 H2          1.2224    0.8314   -1.0657 H         1 <0>         0.0658
     36 H3         -0.2367    0.5744   -2.0521 H         1 <0>         0.1143
     37 H4         -0.3838    0.8438   -0.2988 H         1 <0>         0.0670
     38 H5          1.2173    0.5789    1.0163 H         1 <0>         0.1471
     39 H6          2.2254   -0.1459    3.1402 H         1 <0>         0.1467
     40 H7          0.6571   -3.5039   -0.1135 H         1 <0>         0.1475
     41 H8          1.3958   -6.4381    1.4285 H         1 <0>         0.1004
     42 H9          0.1686   -5.2553    0.9154 H         1 <0>         0.0702
     43 H10         1.7757   -5.2591    0.1503 H         1 <0>         0.0650
     44 H11         2.5891   -1.8507    4.7284 H         1 <0>         0.1424
     45 H12         2.0862   -3.5263    4.4002 H         1 <0>         0.1359
     46 H13         4.2977   -1.3285    2.5936 H         1 <0>         0.1519
     47 H14         4.9129   -1.1933    4.2610 H         1 <0>         0.1431
     48 H15         6.1003   -2.8230    1.9748 H         1 <0>         0.0960
     49 H16         6.8292   -1.4212    2.7911 H         1 <0>         0.1284
     50 H17         7.7552   -3.3404    3.8799 H         1 <0>         0.4263
     51 H18         4.3346   -5.3518    6.2467 H         1 <0>         0.1586
     52 H19         2.8619   -4.8144    5.4038 H         1 <0>         0.1334
     53 H20         3.0449   -7.3847    4.8881 H         1 <0>         0.4144
     54 H21         3.6345   -7.6158    2.1357 H         1 <0>         0.0821
     55 H22         5.0028   -8.2802    3.0601 H         1 <0>         0.0858
     56 H23         3.4552   -9.8062    4.2539 H         1 <0>         0.1184
     57 H24         2.0869   -9.1417    3.3295 H         1 <0>         0.1195
     58 H25         5.4114  -11.2783    4.1385 H         1 <0>         0.1606
     59 H26         6.8733  -13.1409    3.6085 H         1 <0>         0.1608
     60 H27         6.7648  -14.2764    1.4455 H         1 <0>         0.1647
     61 H28         5.2151  -13.6237   -0.2736 H         1 <0>         0.1638
     62 H29         1.6983  -10.5836    0.9642 H         1 <0>         0.1747
     63 H30         2.9035   -9.4420    0.3002 H         1 <0>         0.1697
     64 H31         3.1843  -11.7656   -0.7942 H         1 <0>         0.4582
     65 H32         4.0856   -3.7330    3.0460 H         1 <0>         0.4314
@<TRIPOS>BOND
     1    1    2 1
     2    1   35 1
     3    1   36 1
     4    1   37 1
     5    2    3 1
     6    3    8 ar
     7    3    4 ar
     8    4    5 ar
     9    4   38 1
    10    5    6 ar
    11    5   39 1
    12    6    7 ar
    13    6   11 1
    14    7    8 ar
    15    7    9 1
    16    8   40 1
    17    9   10 1
    18   10   41 1
    19   10   42 1
    20   10   43 1
    21   11   12 1
    22   11   44 1
    23   11   45 1
    24   12   18 1
    25   12   13 1
    26   12   65 1
    27   13   14 1
    28   13   46 1
    29   13   47 1
    30   14   15 1
    31   14   48 1
    32   14   49 1
    33   15   16 am
    34   15   50 1
    35   16   17 2
    36   16   18 1
    37   18   19 1
    38   18   20 1
    39   20   21 1
    40   20   51 1
    41   20   52 1
    42   21   22 2
    43   21   23 am
    44   23   24 1
    45   23   53 1
    46   24   25 1
    47   24   54 1
    48   24   55 1
    49   25   26 1
    50   25   56 1
    51   25   57 1
    52   26   34 1
    53   26   27 2
    54   27   32 ar
    55   27   28 ar
    56   28   29 ar
    57   28   58 1
    58   29   30 ar
    59   29   59 1
    60   30   31 ar
    61   30   60 1
    62   31   32 ar
    63   31   61 1
    64   32   33 2
    65   33   34 1
    66   33   64 1
    67   34   62 1
    68   34   63 1
@<TRIPOS>MOLECULE
ZINC64502785
   68    72     0     0     0
SMALL
USER_CHARGES

@<TRIPOS>ATOM
      1 C1         -0.7183    0.9078   -4.6121 C.3       1 <0>        -0.1617
      2 C2         -0.5593   -0.5082   -4.1214 C.ar      1 <0>         0.0861
      3 C3         -0.9467   -1.5631   -4.9667 C.ar      1 <0>         0.0340
      4 C4         -0.8397   -2.8582   -4.6085 C.ar      1 <0>        -0.1337
      5 C5         -0.2986   -3.2025   -3.2864 C.ar      1 <0>         0.3196
      6 N1         -0.0854   -4.3373   -2.6855 N.pl3     1 <0>        -0.4636
      7 C6          0.4768   -4.0366   -1.3628 C.3       1 <0>         0.2446
      8 H1          1.4698   -4.4764   -1.2695 H         1 <0>         0.2529
      9 N2          0.5630   -2.5736   -1.2724 N.pl3     1 <0>        -0.4783
     10 C7          0.1118   -2.0859   -2.3918 C.ar      1 <0>         0.3144
     11 C8         -0.0464   -0.7132   -2.8916 C.ar      1 <0>        -0.1655
     12 C9         -0.4422   -4.5785   -0.2661 C.3       1 <0>         0.1031
     13 N3         -1.7718   -3.9788   -0.4027 N.am      1 <0>        -0.7695
     14 C10        -2.7525   -4.3103    0.4603 C.2       1 <0>         0.5800
     15 O1         -2.5336   -5.1072    1.3524 O.2       1 <0>        -0.4986
     16 C11        -4.0915   -3.7065    0.3228 C.ar      1 <0>        -0.2127
     17 C12        -4.3463   -2.7947   -0.7058 C.ar      1 <0>        -0.0555
     18 C13        -5.5964   -2.2335   -0.8318 C.ar      1 <0>        -0.1687
     19 C14        -6.6067   -2.5726    0.0640 C.ar      1 <0>         0.2886
     20 C15        -6.3560   -3.4801    1.0896 C.ar      1 <0>        -0.1830
     21 C16        -5.1097   -4.0494    1.2171 C.ar      1 <0>        -0.0011
     22 N4         -7.8687   -2.0035   -0.0657 N.pl3     1 <0>        -0.4880
     23 C17        -9.1272   -2.6272    0.3740 C.3       1 <0>         0.3424
     24 H2         -9.1296   -2.7491    1.4571 H         1 <0>         0.1152
     25 C18       -10.2448   -1.6473   -0.0574 C.3       1 <0>        -0.0901
     26 H3        -10.5522   -1.0127    0.7738 H         1 <0>         0.1136
     27 C19        -9.5144   -0.8211   -1.1508 C.3       1 <0>         0.0716
     28 H4         -9.9344    0.1818   -1.2275 H         1 <0>         0.1118
     29 N5         -8.1263   -0.7748   -0.6169 N.3       1 <0>        -0.4413
     30 C20        -9.5635   -1.5370   -2.5021 C.3       1 <0>        -0.1471
     31 C21       -11.4233   -2.3889   -0.6338 C.ar      1 <0>        -0.0854
     32 C22       -11.7763   -3.6259   -0.1276 C.ar      1 <0>        -0.1071
     33 C23       -12.8573   -4.3062   -0.6564 C.ar      1 <0>        -0.1200
     34 C24       -13.5855   -3.7493   -1.6910 C.ar      1 <0>        -0.1081
     35 C25       -13.2331   -2.5119   -2.1965 C.ar      1 <0>        -0.1189
     36 C26       -12.1547   -1.8297   -1.6649 C.ar      1 <0>        -0.1086
     37 N6         -9.3066   -3.9247   -0.2822 N.am      1 <0>        -0.7223
     38 C27        -9.0876   -5.0633    0.4049 C.2       1 <0>         0.5167
     39 O2         -8.8443   -5.0179    1.5922 O.2       1 <0>        -0.5342
     40 C28        -9.1449   -6.3929   -0.3022 C.3       1 <0>        -0.1744
     41 H5          0.1895    1.2168   -5.1304 H         1 <0>         0.1322
     42 H6         -1.5643    0.9621   -5.2972 H         1 <0>         0.1149
     43 H7         -0.8950    1.5687   -3.7635 H         1 <0>         0.1117
     44 H8         -1.3462   -1.3261   -5.9417 H         1 <0>         0.2051
     45 H9         -1.1498   -3.6377   -5.2887 H         1 <0>         0.2092
     46 H10         0.2425    0.1261   -2.2764 H         1 <0>         0.2052
     47 H11        -0.5207   -5.6616   -0.3601 H         1 <0>         0.1491
     48 H12        -0.0291   -4.3275    0.7109 H         1 <0>         0.1500
     49 H13        -1.9464   -3.3432   -1.1143 H         1 <0>         0.3855
     50 H14        -3.5627   -2.5307   -1.4006 H         1 <0>         0.1003
     51 H15        -5.7939   -1.5290   -1.6262 H         1 <0>         0.1383
     52 H16        -7.1417   -3.7409    1.7832 H         1 <0>         0.1503
     53 H17        -4.9171   -4.7569    2.0101 H         1 <0>         0.1405
     54 H18        -8.0244   -0.0421    0.0692 H         1 <0>         0.3414
     55 H19       -10.5829   -1.5160   -2.8875 H         1 <0>         0.0870
     56 H20        -8.8991   -1.0336   -3.2043 H         1 <0>         0.0661
     57 H21        -9.2436   -2.5715   -2.3770 H         1 <0>         0.0523
     58 H22       -11.2073   -4.0610    0.6807 H         1 <0>         0.1220
     59 H23       -13.1326   -5.2729   -0.2614 H         1 <0>         0.1244
     60 H24       -14.4297   -4.2811   -2.1045 H         1 <0>         0.1261
     61 H25       -13.8019   -2.0770   -3.0051 H         1 <0>         0.1271
     62 H26       -11.8816   -0.8613   -2.0574 H         1 <0>         0.1278
     63 H27        -9.5831   -3.9643   -1.2111 H         1 <0>         0.4063
     64 H28        -9.3741   -6.2344   -1.3560 H         1 <0>         0.0761
     65 H29        -8.1814   -6.8945   -0.2114 H         1 <0>         0.0969
     66 H30        -9.9205   -7.0114    0.1493 H         1 <0>         0.1023
     67 H31        -0.2652   -5.2199   -3.0455 H         1 <0>         0.4977
     68 H32         0.8953   -2.0639   -0.5169 H         1 <0>         0.4971
@<TRIPOS>BOND
     1    1    2 1
     2    1   41 1
     3    1   42 1
     4    1   43 1
     5    2   11 ar
     6    2    3 ar
     7    3    4 ar
     8    3   44 1
     9    4    5 ar
    10    4   45 1
    11    5   10 ar
    12    5    6 2
    13    6    7 1
    14    6   67 1
    15    7    8 1
    16    7    9 1
    17    7   12 1
    18    9   10 2
    19    9   68 1
    20   10   11 ar
    21   11   46 1
    22   12   13 1
    23   12   47 1
    24   12   48 1
    25   13   14 am
    26   13   49 1
    27   14   15 2
    28   14   16 1
    29   16   21 ar
    30   16   17 ar
    31   17   18 ar
    32   17   50 1
    33   18   19 ar
    34   18   51 1
    35   19   20 ar
    36   19   22 1
    37   20   21 ar
    38   20   52 1
    39   21   53 1
    40   22   29 1
    41   22   23 1
    42   23   24 1
    43   23   25 1
    44   23   37 1
    45   25   26 1
    46   25   27 1
    47   25   31 1
    48   27   28 1
    49   27   29 1
    50   27   30 1
    51   29   54 1
    52   30   55 1
    53   30   56 1
    54   30   57 1
    55   31   36 ar
    56   31   32 ar
    57   32   33 ar
    58   32   58 1
    59   33   34 ar
    60   33   59 1
    61   34   35 ar
    62   34   60 1
    63   35   36 ar
    64   35   61 1
    65   36   62 1
    66   37   38 am
    67   37   63 1
    68   38   39 2
    69   38   40 1
    70   40   64 1
    71   40   65 1
    72   40   66 1
@<TRIPOS>MOLECULE
ZINC11498482
   59    61     0     0     0
SMALL
USER_CHARGES
N-[1-(4-fluorophenyl)ethyl]-2-[4-(4-fluorophenyl)sulfonyl-1,4-diazepan-1-yl]-N-methyl-acetamide
@<TRIPOS>ATOM
      1 C1         -1.6131    7.2902   -0.5614 C.3       1 <0>        -0.1666
      2 C2         -0.6014    6.6465    0.3889 C.3       1 <0>         0.1825
      3 H1         -1.1312    6.0731    1.1496 H         1 <0>         0.1214
      4 C3          0.2200    7.7221    1.0518 C.ar      1 <0>        -0.1220
      5 C4          1.5107    7.4494    1.4652 C.ar      1 <0>        -0.0793
      6 C5          2.2668    8.4366    2.0681 C.ar      1 <0>        -0.1520
      7 C6          1.7271    9.6958    2.2688 C.ar      1 <0>         0.1106
      8 C7          0.4323    9.9661    1.8595 C.ar      1 <0>        -0.1460
      9 C8         -0.3198    8.9791    1.2513 C.ar      1 <0>        -0.0771
     10 F1          2.4631   10.6598    2.8640 F         1 <0>        -0.1321
     11 N1          0.2810    5.7551   -0.3681 N.am      1 <0>        -0.5820
     12 C9          1.0104    6.2624   -1.5330 C.3       1 <0>         0.0559
     13 C10         0.4217    4.4682    0.0070 C.2       1 <0>         0.5046
     14 O1         -0.1821    4.0482    0.9713 O.2       1 <0>        -0.5220
     15 C11         1.3294    3.5513   -0.7717 C.3       1 <0>        -0.0335
     16 C12        -0.0091    1.5953   -0.3028 C.3       1 <0>        -0.0083
     17 C13         0.0167    0.1252   -0.4252 C.3       1 <0>        -0.1763
     18 C14         0.6220   -0.4961    0.8587 C.3       1 <0>         0.0914
     19 N2          2.0343   -0.1890    0.9250 N.pl3     1 <0>        -1.0107
     20 C15         2.5609    1.0325    1.5688 C.3       1 <0>         0.0883
     21 C16         1.7064    2.2669    1.2248 C.3       1 <0>        -0.0208
     22 S1          3.1081   -1.2531    0.2490 S.o2      1 <0>         2.6788
     23 O2          4.3519   -1.0463    0.9043 O.2       1 <0>        -0.9319
     24 O3          2.4628   -2.5188    0.2213 O.2       1 <0>        -0.9266
     25 C17         3.3363   -0.7674   -1.4293 C.ar      1 <0>        -0.7165
     26 C18         2.5211   -1.2893   -2.4164 C.ar      1 <0>         0.0083
     27 C19         2.6960   -0.9054   -3.7324 C.ar      1 <0>        -0.1699
     28 C20         3.6949   -0.0057   -4.0636 C.ar      1 <0>         0.1689
     29 C21         4.5142    0.5124   -3.0749 C.ar      1 <0>        -0.1731
     30 C22         4.3340    0.1310   -1.7588 C.ar      1 <0>        -0.0048
     31 F2          3.8699    0.3667   -5.3504 F         1 <0>        -0.1185
     32 H2         -2.2072    6.5122   -1.0409 H         1 <0>         0.0679
     33 H3         -2.2696    7.9534    0.0019 H         1 <0>         0.0842
     34 H4         -1.0833    7.8635   -1.3221 H         1 <0>         0.0693
     35 H5          1.9297    6.4656    1.3132 H         1 <0>         0.1197
     36 H6          3.2766    8.2245    2.3873 H         1 <0>         0.1382
     37 H7          0.0101   10.9478    2.0159 H         1 <0>         0.1430
     38 H8         -1.3298    9.1897    0.9319 H         1 <0>         0.1407
     39 H9          0.3801    6.1840   -2.4188 H         1 <0>         0.0774
     40 H10         1.2772    7.3063   -1.3681 H         1 <0>         0.0925
     41 H11         1.9165    5.6744   -1.6786 H         1 <0>         0.0756
     42 H12         2.3460    3.9439   -0.7522 H         1 <0>         0.1598
     43 H13         0.9838    3.4885   -1.8036 H         1 <0>         0.1599
     44 H14        -0.4943    2.0076   -1.1875 H         1 <0>         0.1237
     45 H15        -0.6067    1.8594    0.5697 H         1 <0>         0.1484
     46 H16        -0.9992   -0.2450   -0.5629 H         1 <0>         0.1382
     47 H17         0.6248   -0.1564   -1.2848 H         1 <0>         0.0840
     48 H18         0.1193   -0.0838    1.7336 H         1 <0>         0.1077
     49 H19         0.4863   -1.5774    0.8378 H         1 <0>         0.1235
     50 H20         2.5645    0.8919    2.6497 H         1 <0>         0.1242
     51 H21         3.5826    1.2020    1.2287 H         1 <0>         0.1131
     52 H22         0.8173    2.2797    1.8553 H         1 <0>         0.1565
     53 H23         2.2886    3.1715    1.4005 H         1 <0>         0.1386
     54 H24         1.7446   -1.9942   -2.1583 H         1 <0>         0.1566
     55 H25         2.0563   -1.3102   -4.5027 H         1 <0>         0.1545
     56 H26         5.2935    1.2145   -3.3320 H         1 <0>         0.1539
     57 H27         4.9727    0.5353   -0.9874 H         1 <0>         0.1543
     58 N3          1.3284    2.1994   -0.1789 N.4       1 <0>        -0.3703
     59 H28         2.0076    1.6151   -0.6804 H         1 <0>         0.4241
@<TRIPOS>BOND
     1    1    2 1
     2    1   32 1
     3    1   33 1
     4    1   34 1
     5    2    3 1
     6    2    4 1
     7    2   11 1
     8    4    9 ar
     9    4    5 ar
    10    5    6 ar
    11    5   35 1
    12    6    7 ar
    13    6   36 1
    14    7    8 ar
    15    7   10 1
    16    8    9 ar
    17    8   37 1
    18    9   38 1
    19   11   12 1
    20   11   13 am
    21   12   39 1
    22   12   40 1
    23   12   41 1
    24   13   14 2
    25   13   15 1
    26   15   42 1
    27   15   43 1
    28   15   58 1
    29   16   17 1
    30   16   44 1
    31   16   45 1
    32   16   58 1
    33   17   18 1
    34   17   46 1
    35   17   47 1
    36   18   19 1
    37   18   48 1
    38   18   49 1
    39   19   20 1
    40   19   22 1
    41   20   21 1
    42   20   50 1
    43   20   51 1
    44   21   52 1
    45   21   53 1
    46   21   58 1
    47   22   23 2
    48   22   24 2
    49   22   25 1
    50   25   30 ar
    51   25   26 ar
    52   26   27 ar
    53   26   54 1
    54   27   28 ar
    55   27   55 1
    56   28   29 ar
    57   28   31 1
    58   29   30 ar
    59   29   56 1
    60   30   57 1
    61   58   59 1
@<TRIPOS>MOLECULE
ZINC22609317
   50    53     0     0     0
SMALL
USER_CHARGES
(3S)-1-(3-chloro-4-fluoro-phenyl)-3-(6,7-dimethoxy-3,4-dihydro-1H-isoquinolin-2-yl)pyrrolidine-2,5-dione
@<TRIPOS>ATOM
      1 C1          5.4715   11.8521    5.9308 C.3       1 <0>         0.0171
      2 O1          6.5648   11.0611    5.4605 O.3       1 <0>        -0.2952
      3 C2          6.3071   10.1929    4.4459 C.ar      1 <0>         0.1341
      4 C3          5.0327   10.1031    3.9144 C.ar      1 <0>        -0.1670
      5 C4          4.7649    9.2194    2.8797 C.ar      1 <0>        -0.0824
      6 C5          5.7725    8.4254    2.3737 C.ar      1 <0>        -0.1332
      7 C6          7.0515    8.5108    2.9046 C.ar      1 <0>        -0.1542
      8 C7          7.3237    9.3900    3.9375 C.ar      1 <0>         0.1190
      9 O2          8.5793    9.4690    4.4541 O.3       1 <0>        -0.2957
     10 C8          9.5712    8.6142    3.8818 C.3       1 <0>         0.0179
     11 C9          5.5308    7.4592    1.2434 C.3       1 <0>         0.0510
     12 N1          4.0962    7.1984    1.0888 N.4       1 <0>        -0.3972
     13 C10         3.3580    8.4662    0.9724 C.3       1 <0>        -0.0154
     14 C11         3.3600    9.1557    2.3370 C.3       1 <0>        -0.0989
     15 C12         3.8405    6.3321   -0.0696 C.3       1 <0>         0.0004
     16 H1          4.1148    6.9535   -0.9349 H         1 <0>         0.1887
     17 C13         4.6298    5.0125    0.0505 C.3       1 <0>        -0.1698
     18 C14         3.5484    3.9550    0.0923 C.2       1 <0>         0.5239
     19 O3          3.7368    2.7613    0.1885 O.2       1 <0>        -0.4149
     20 N2          2.3505    4.5462    0.0031 N.am      1 <0>        -0.5129
     21 C15         2.3963    5.8810   -0.0887 C.2       1 <0>         0.5192
     22 O4          1.4333    6.6124   -0.1741 O.2       1 <0>        -0.4189
     23 C16         1.1463    3.8266    0.0112 C.ar      1 <0>         0.0857
     24 C17         0.2731    3.9454    1.0839 C.ar      1 <0>        -0.0612
     25 C18        -0.9124    3.2368    1.0906 C.ar      1 <0>        -0.1270
     26 C19        -1.2332    2.4120    0.0257 C.ar      1 <0>         0.1418
     27 C20        -0.3608    2.2878   -1.0437 C.ar      1 <0>        -0.0670
     28 C21         0.8265    2.9957   -1.0533 C.ar      1 <0>        -0.0556
     29 Cl1        -0.7624    1.2485   -2.3750 Cl        1 <0>        -0.0177
     30 F1         -2.3957    1.7237    0.0317 F         1 <0>        -0.1092
     31 H2          5.8157   12.5056    6.7459 H         1 <0>         0.1133
     32 H3          4.6742   11.1916    6.3023 H         1 <0>         0.0615
     33 H4          5.0831   12.4679    5.1062 H         1 <0>         0.0620
     34 H5          4.2420   10.7246    4.3078 H         1 <0>         0.1476
     35 H6          7.8394    7.8869    2.5092 H         1 <0>         0.1470
     36 H7         10.5335    8.7786    4.3887 H         1 <0>         0.1126
     37 H8          9.6774    8.8415    2.8108 H         1 <0>         0.0604
     38 H9          9.2662    7.5646    4.0054 H         1 <0>         0.0601
     39 H10         5.9194    7.8858    0.3069 H         1 <0>         0.1445
     40 H11         6.0456    6.5105    1.4555 H         1 <0>         0.1418
     41 H12         3.8483    9.1088    0.2263 H         1 <0>         0.1393
     42 H13         2.3244    8.2610    0.6569 H         1 <0>         0.1532
     43 H14         2.7242    8.5866    3.0312 H         1 <0>         0.1047
     44 H15         2.9624   10.1755    2.2280 H         1 <0>         0.1278
     45 H16         5.2911    4.9002   -0.8213 H         1 <0>         0.1685
     46 H17         5.2342    5.0291    0.9694 H         1 <0>         0.1478
     47 H18         0.5206    4.5919    1.9129 H         1 <0>         0.1443
     48 H19        -1.5916    3.3293    1.9252 H         1 <0>         0.1631
     49 H20         1.5045    2.9024   -1.8888 H         1 <0>         0.1512
     50 H21         3.7434    6.6681    1.9857 H         1 <0>         0.4443
@<TRIPOS>BOND
     1    1    2 1
     2    1   31 1
     3    1   32 1
     4    1   33 1
     5    2    3 1
     6    3    8 ar
     7    3    4 ar
     8    4    5 ar
     9    4   34 1
    10    5   14 1
    11    5    6 ar
    12    6    7 ar
    13    6   11 1
    14    7    8 ar
    15    7   35 1
    16    8    9 1
    17    9   10 1
    18   10   36 1
    19   10   37 1
    20   10   38 1
    21   11   12 1
    22   11   39 1
    23   11   40 1
    24   12   13 1
    25   12   15 1
    26   12   50 1
    27   13   14 1
    28   13   41 1
    29   13   42 1
    30   14   43 1
    31   14   44 1
    32   15   16 1
    33   15   21 1
    34   15   17 1
    35   17   18 1
    36   17   45 1
    37   17   46 1
    38   18   19 2
    39   18   20 am
    40   20   21 am
    41   20   23 1
    42   21   22 2
    43   23   28 ar
    44   23   24 ar
    45   24   25 ar
    46   24   47 1
    47   25   26 ar
    48   25   48 1
    49   26   27 ar
    50   26   30 1
    51   27   28 ar
    52   27   29 1
    53   28   49 1
@<TRIPOS>MOLECULE
ZINC35808500
   59    63     0     0     0
SMALL
USER_CHARGES

@<TRIPOS>ATOM
      1 C1         -0.0165    1.6086    0.1744 C.3       1 <0>        -0.1852
      2 C2         -0.0140    0.0832    0.0561 C.3       1 <0>         0.0815
      3 H1          0.3941   -0.2013   -0.9137 H         1 <0>         0.1491
      4 C3         -1.4271   -0.4259    0.1690 C.ar      1 <0>        -0.1279
      5 C4         -2.4360    0.2756   -0.4754 C.ar      1 <0>        -0.1514
      6 C5         -3.7474   -0.1581   -0.4009 C.ar      1 <0>         0.1195
      7 C6         -4.0551   -1.3053    0.3251 C.ar      1 <0>         0.1353
      8 C7         -3.0460   -2.0008    0.9671 C.ar      1 <0>        -0.1655
      9 C8         -1.7332   -1.5610    0.8897 C.ar      1 <0>        -0.0816
     10 C9         -0.6664   -2.3452    1.6108 C.3       1 <0>        -0.0960
     11 C10         0.7133   -1.9484    1.0841 C.3       1 <0>        -0.0237
     12 N1          0.8236   -0.4823    1.1176 N.4       1 <0>        -0.3681
     13 C11         2.2227   -0.0904    0.9012 C.3       1 <0>        -0.0138
     14 H2          2.3162    0.9953    0.8757 H         1 <0>         0.1952
     15 C12         2.7655   -0.7127   -0.4014 C.3       1 <0>        -0.1730
     16 C13         3.9052   -1.5882    0.0719 C.2       1 <0>         0.5209
     17 O1          4.6126   -2.2666   -0.6415 O.2       1 <0>        -0.4170
     18 N2          4.0088   -1.4947    1.4034 N.am      1 <0>        -0.5128
     19 C14         3.1122   -0.6763    1.9760 C.2       1 <0>         0.5153
     20 O2          3.0264   -0.4434    3.1626 O.2       1 <0>        -0.4164
     21 C15         4.9742   -2.1914    2.1385 C.ar      1 <0>         0.0809
     22 C16         6.2038   -1.6218    2.3863 C.ar      1 <0>        -0.0637
     23 C17         7.1711   -2.3058    3.1168 C.ar      1 <0>        -0.1181
     24 C18         6.9306   -3.5534    3.6060 C.ar      1 <0>        -0.0654
     25 C19         5.6891   -4.1698    3.3753 C.ar      1 <0>        -0.0504
     26 C20         4.6949   -3.4809    2.6375 C.ar      1 <0>        -0.0251
     27 C21         3.4531   -4.0959    2.4126 C.ar      1 <0>        -0.1334
     28 C22         3.2183   -5.3416    2.9093 C.ar      1 <0>        -0.0865
     29 C23         4.1936   -6.0179    3.6395 C.ar      1 <0>        -0.1173
     30 C24         5.4126   -5.4572    3.8676 C.ar      1 <0>        -0.0833
     31 O3         -5.3413   -1.7400    0.4033 O.3       1 <0>        -0.2949
     32 C25        -5.5805   -2.9244    1.1661 C.3       1 <0>         0.0204
     33 O4         -4.7321    0.5332   -1.0348 O.3       1 <0>        -0.2951
     34 C26        -4.3413    1.7002   -1.7609 C.3       1 <0>         0.0208
     35 H3          1.0053    1.9806    0.0992 H         1 <0>         0.0864
     36 H4         -0.6182    2.0343   -0.6287 H         1 <0>         0.1125
     37 H5         -0.4385    1.8978    1.1369 H         1 <0>         0.0906
     38 H6         -2.1960    1.1653   -1.0387 H         1 <0>         0.1487
     39 H7         -3.2819   -2.8911    1.5312 H         1 <0>         0.1484
     40 H8         -0.7210   -2.1340    2.6788 H         1 <0>         0.1085
     41 H9         -0.8251   -3.4107    1.4446 H         1 <0>         0.1285
     42 H10         1.4860   -2.3883    1.7145 H         1 <0>         0.1273
     43 H11         0.8289   -2.3009    0.0591 H         1 <0>         0.1425
     44 H12         1.9974   -1.3131   -0.8888 H         1 <0>         0.1430
     45 H13         3.1315    0.0633   -1.0737 H         1 <0>         0.1655
     46 H14         6.4199   -0.6331    2.0089 H         1 <0>         0.1318
     47 H15         8.1282   -1.8394    3.2983 H         1 <0>         0.1417
     48 H16         7.6934   -4.0690    4.1704 H         1 <0>         0.1428
     49 H17         2.6878   -3.5833    1.8487 H         1 <0>         0.1047
     50 H18         2.2620   -5.8123    2.7351 H         1 <0>         0.1291
     51 H19         3.9822   -7.0053    4.0226 H         1 <0>         0.1340
     52 H20         6.1590   -5.9933    4.4349 H         1 <0>         0.1397
     53 H21        -6.6446   -3.1602    1.1468 H         1 <0>         0.1116
     54 H22        -5.0170   -3.7529    0.7371 H         1 <0>         0.0610
     55 H23        -5.2626   -2.7636    2.1962 H         1 <0>         0.0608
     56 H24        -5.2203    2.1556   -2.2171 H         1 <0>         0.1112
     57 H25        -3.8750    2.4125   -1.0802 H         1 <0>         0.0591
     58 H26        -3.6305    1.4228   -2.5393 H         1 <0>         0.0595
     59 H27         0.5102   -0.1400    2.0135 H         1 <0>         0.4377
@<TRIPOS>BOND
     1    1    2 1
     2    1   35 1
     3    1   36 1
     4    1   37 1
     5    2    3 1
     6    2   12 1
     7    2    4 1
     8    4    9 ar
     9    4    5 ar
    10    5    6 ar
    11    5   38 1
    12    6    7 ar
    13    6   33 1
    14    7    8 ar
    15    7   31 1
    16    8    9 ar
    17    8   39 1
    18    9   10 1
    19   10   11 1
    20   10   40 1
    21   10   41 1
    22   11   12 1
    23   11   42 1
    24   11   43 1
    25   12   13 1
    26   12   59 1
    27   13   14 1
    28   13   19 1
    29   13   15 1
    30   15   16 1
    31   15   44 1
    32   15   45 1
    33   16   17 2
    34   16   18 am
    35   18   19 am
    36   18   21 1
    37   19   20 2
    38   21   26 ar
    39   21   22 ar
    40   22   23 ar
    41   22   46 1
    42   23   24 ar
    43   23   47 1
    44   24   25 ar
    45   24   48 1
    46   25   30 ar
    47   25   26 ar
    48   26   27 ar
    49   27   28 ar
    50   27   49 1
    51   28   29 ar
    52   28   50 1
    53   29   30 ar
    54   29   51 1
    55   30   52 1
    56   31   32 1
    57   32   53 1
    58   32   54 1
    59   32   55 1
    60   33   34 1
    61   34   56 1
    62   34   57 1
    63   34   58 1
@<TRIPOS>MOLECULE
ZINC40033474
   52    55     0     0     0
SMALL
USER_CHARGES

@<TRIPOS>ATOM
      1 C1         -0.0164    1.3560    0.0095 C.2       1 <0>        -0.0179
      2 C2          1.1943    2.0684    0.0018 C.2       1 <0>        -0.1122
      3 C3          2.3719    1.4095   -0.0130 C.2       1 <0>         0.0851
      4 N1          2.4048    0.0451   -0.0211 N.pl3     1 <0>        -0.3252
      5 C4          3.4345   -0.8560   -0.0367 C.2       1 <0>        -0.0248
      6 C5          2.8848   -2.0901   -0.0386 C.2       1 <0>         0.1106
      7 N2          1.5556   -1.9650   -0.0247 N.pl3     1 <0>        -0.4951
      8 C6          1.2400   -0.6776   -0.0139 C.cat     1 <0>         0.3052
      9 C7          0.0021   -0.0041    0.0020 C.2       1 <0>        -0.1236
     10 C8          3.6452   -3.3912   -0.0544 C.3       1 <0>         0.1036
     11 N3          3.8022   -3.8833    1.3208 N.3       1 <0>        -0.5417
     12 C9          4.6638   -2.9880    2.1054 C.3       1 <0>         0.0500
     13 C10         4.7375   -3.4910    3.5490 C.3       1 <0>         0.0524
     14 N4          5.2606   -4.8642    3.5604 N.3       1 <0>        -0.5302
     15 C11         4.3990   -5.7595    2.7758 C.3       1 <0>         0.0465
     16 C12         4.3254   -5.2565    1.3322 C.3       1 <0>         0.0583
     17 C13         5.4176   -5.3563    4.9356 C.3       1 <0>         0.0646
     18 C14         6.1896   -6.6772    4.9195 C.3       1 <0>        -0.6109
     19 S1          6.3835   -7.2849    6.6177 S.o2      1 <0>         2.4998
     20 O1          7.2474   -6.4260    7.3493 O.2       1 <0>        -0.9268
     21 O2          5.1215   -7.6660    7.1482 O.2       1 <0>        -0.9294
     22 C15         7.2788   -8.7942    6.4591 C.ar      1 <0>        -0.6620
     23 C16         6.5992   -9.9866    6.2937 C.ar      1 <0>        -0.0112
     24 C17         7.3010  -11.1708    6.1693 C.ar      1 <0>        -0.1305
     25 C18         8.6839  -11.1626    6.2102 C.ar      1 <0>         0.0184
     26 C19         9.3635   -9.9690    6.3757 C.ar      1 <0>        -0.1299
     27 C20         8.6607   -8.7847    6.4944 C.ar      1 <0>        -0.0095
     28 Cl1         9.5660  -12.6497    6.0545 Cl        1 <0>        -0.0463
     29 H1         -0.9574    1.8857    0.0258 H         1 <0>         0.1755
     30 H2          1.1826    3.1483    0.0073 H         1 <0>         0.1838
     31 H3          3.2969    1.9670   -0.0188 H         1 <0>         0.2007
     32 H4          4.4892   -0.6240   -0.0463 H         1 <0>         0.2245
     33 H5         -0.9225   -0.5622    0.0082 H         1 <0>         0.1793
     34 H6          3.0957   -4.1260   -0.6428 H         1 <0>         0.1126
     35 H7          4.6281   -3.2322   -0.4979 H         1 <0>         0.0905
     36 H8          5.6644   -2.9753    1.6732 H         1 <0>         0.0583
     37 H9          4.2488   -1.9801    2.0922 H         1 <0>         0.0768
     38 H10         5.3992   -2.8449    4.1259 H         1 <0>         0.0907
     39 H11         3.7407   -3.4779    3.9899 H         1 <0>         0.0479
     40 H12         4.8140   -6.7674    2.7890 H         1 <0>         0.0913
     41 H13         3.3984   -5.7722    3.2080 H         1 <0>         0.0512
     42 H14         3.6636   -5.9026    0.7553 H         1 <0>         0.0900
     43 H15         5.3221   -5.2696    0.8912 H         1 <0>         0.0576
     44 H16         5.9671   -4.6215    5.5239 H         1 <0>         0.0972
     45 H17         4.4347   -5.5153    5.3790 H         1 <0>         0.0578
     46 H18         5.6401   -7.4121    4.3312 H         1 <0>         0.1366
     47 H19         7.1726   -6.5182    4.4761 H         1 <0>         0.1480
     48 H20         5.5197   -9.9929    6.2622 H         1 <0>         0.1518
     49 H21         6.7699  -12.1023    6.0404 H         1 <0>         0.1472
     50 H22        10.4429   -9.9620    6.4080 H         1 <0>         0.1477
     51 H23         9.1913   -7.8522    6.6188 H         1 <0>         0.1532
     52 H24         0.9218   -2.6992   -0.0228 H         1 <0>         0.4624
@<TRIPOS>BOND
     1    1    9 2
     2    1    2 1
     3    1   29 1
     4    2    3 2
     5    2   30 1
     6    3    4 1
     7    3   31 1
     8    4    8 1
     9    4    5 1
    10    5    6 2
    11    5   32 1
    12    6    7 1
    13    6   10 1
    14    7    8 2
    15    7   52 1
    16    8    9 1
    17    9   33 1
    18   10   11 1
    19   10   34 1
    20   10   35 1
    21   11   16 1
    22   11   12 1
    23   12   13 1
    24   12   36 1
    25   12   37 1
    26   13   14 1
    27   13   38 1
    28   13   39 1
    29   14   15 1
    30   14   17 1
    31   15   16 1
    32   15   40 1
    33   15   41 1
    34   16   42 1
    35   16   43 1
    36   17   18 1
    37   17   44 1
    38   17   45 1
    39   18   19 1
    40   18   46 1
    41   18   47 1
    42   19   20 2
    43   19   21 2
    44   19   22 1
    45   22   27 ar
    46   22   23 ar
    47   23   24 ar
    48   23   48 1
    49   24   25 ar
    50   24   49 1
    51   25   26 ar
    52   25   28 1
    53   26   27 ar
    54   26   50 1
    55   27   51 1
@<TRIPOS>MOLECULE
ZINC63139077
   65    71     0     0     0
SMALL
USER_CHARGES

@<TRIPOS>ATOM
      1 C1         -0.0158    1.3796    0.0135 C.ar      1 <0>        -0.1088
      2 C2          0.1894    0.3104    0.8653 C.ar      1 <0>        -0.1247
      3 C3          1.3954   -0.3650    0.8487 C.ar      1 <0>        -0.1303
      4 C4          2.3960    0.0285   -0.0201 C.ar      1 <0>        -0.1110
      5 C5          2.1905    1.0972   -0.8726 C.ar      1 <0>        -0.0955
      6 C6          0.9850    1.7734   -0.8549 C.ar      1 <0>        -0.1155
      7 C7          3.7112   -0.7071   -0.0376 C.3       1 <0>         0.1884
      8 H1          4.5139   -0.0176    0.2237 H         1 <0>         0.1280
      9 C8          3.9605   -1.2675   -1.4419 C.3       1 <0>         0.0418
     10 H2          5.0197   -1.4565   -1.6166 H         1 <0>         0.1164
     11 C9          3.1070   -2.5185   -1.7164 C.3       1 <0>        -0.0924
     12 H3          3.4880   -3.0177   -2.6074 H         1 <0>         0.0965
     13 C10         3.0351   -3.5126   -0.5904 C.3       1 <0>        -0.1048
     14 C11         2.6820   -2.8357    0.7341 C.3       1 <0>         0.1094
     15 H4          1.6911   -2.3895    0.6493 H         1 <0>         0.1392
     16 N1          3.6703   -1.7993    0.9425 N.am      1 <0>        -0.5911
     17 C12         4.5168   -1.8172    1.9735 C.2       1 <0>         0.5114
     18 O1          5.1952   -0.8324    2.1757 O.2       1 <0>        -0.5131
     19 C13         4.6744   -2.9866    2.8947 C.3       1 <0>         0.0870
     20 N2          3.5445   -3.8989    2.8017 N.am      1 <0>        -0.5805
     21 C14         2.6764   -3.8166    1.8577 C.2       1 <0>         0.5188
     22 O2          1.7965   -4.6509    1.8823 O.2       1 <0>        -0.5399
     23 C15         3.3929   -4.9272    3.8341 C.3       1 <0>         0.1150
     24 C16         2.5421   -4.3772    4.9806 C.3       1 <0>        -0.1121
     25 C17         2.3861   -5.4350    6.0426 C.2       1 <0>         0.0745
     26 C18         3.1364   -5.5843    7.1580 C.ar      1 <0>        -0.1707
     27 C19         4.2792   -4.8360    7.6952 C.ar      1 <0>        -0.0136
     28 C20         4.8344   -5.2348    8.8622 C.ar      1 <0>        -0.1498
     29 C21         4.3472   -6.3425    9.5695 C.ar      1 <0>         0.0535
     30 C22         3.3012   -7.0796    9.1398 C.ar      1 <0>        -0.2091
     31 C23         2.6406   -6.7498    7.9243 C.ar      1 <0>         0.3272
     32 N3          1.6234   -7.2997    7.3067 N.pl3     1 <0>        -0.5847
     33 C24         1.3548   -6.5405    6.0803 C.3       1 <0>         0.0601
     34 C25         1.7621   -1.8705   -2.0486 C.3       1 <0>        -0.0812
     35 H5          1.2085   -1.6515   -1.1355 H         1 <0>         0.1167
     36 C26         0.9274   -2.6907   -2.9811 C.2       1 <0>        -0.1272
     37 C27         0.3258   -2.1411   -4.0319 C.2       1 <0>        -0.1325
     38 C28         0.4442   -0.7212   -4.3532 C.2       1 <0>        -0.0686
     39 C29         1.3738    0.0473   -3.7310 C.2       1 <0>        -0.1152
     40 C30         2.1878   -0.5830   -2.7353 C.2       1 <0>         0.1883
     41 N4          3.4171   -0.2525   -2.3830 N.2       1 <0>        -0.4700
     42 H6         -0.9597    1.9044    0.0234 H         1 <0>         0.1238
     43 H7         -0.5924    0.0029    1.5441 H         1 <0>         0.1207
     44 H8          1.5560   -1.1999    1.5147 H         1 <0>         0.1188
     45 H9          2.9724    1.4048   -1.5511 H         1 <0>         0.1531
     46 H10         0.8245    2.6086   -1.5206 H         1 <0>         0.1264
     47 H11         2.2754   -4.2591   -0.8224 H         1 <0>         0.0961
     48 H12         4.0008   -4.0081   -0.4907 H         1 <0>         0.0806
     49 H13         5.5871   -3.5231    2.6355 H         1 <0>         0.1183
     50 H14         4.7553   -2.6239    3.9194 H         1 <0>         0.1197
     51 H15         2.9038   -5.8023    3.4062 H         1 <0>         0.1097
     52 H16         4.3752   -5.2090    4.2132 H         1 <0>         0.0988
     53 H17         3.0312   -3.5021    5.4085 H         1 <0>         0.1118
     54 H18         1.5598   -4.0954    4.6014 H         1 <0>         0.1181
     55 H19         4.6711   -3.9798    7.1663 H         1 <0>         0.1599
     56 H20         5.6753   -4.6857    9.2592 H         1 <0>         0.1580
     57 H21         4.8287   -6.6178   10.4962 H         1 <0>         0.1609
     58 H22         2.9643   -7.9246    9.7221 H         1 <0>         0.1605
     59 H23         0.3509   -6.1169    6.1104 H         1 <0>         0.1754
     60 H24         1.4646   -7.1866    5.2093 H         1 <0>         0.1755
     61 H25         0.8117   -3.7486   -2.7974 H         1 <0>         0.1240
     62 H26        -0.2745   -2.7696   -4.6731 H         1 <0>         0.1254
     63 H27        -0.2117   -0.2805   -5.0894 H         1 <0>         0.1359
     64 H28         1.4907    1.0951   -3.9655 H         1 <0>         0.1425
     65 H29         1.1285   -8.0763    7.6115 H         1 <0>         0.4560
@<TRIPOS>BOND
     1    1    6 ar
     2    1    2 ar
     3    1   42 1
     4    2    3 ar
     5    2   43 1
     6    3    4 ar
     7    3   44 1
     8    4    5 ar
     9    4    7 1
    10    5    6 ar
    11    5   45 1
    12    6   46 1
    13    7    8 1
    14    7   16 1
    15    7    9 1
    16    9   10 1
    17    9   41 1
    18    9   11 1
    19   11   12 1
    20   11   13 1
    21   11   34 1
    22   13   14 1
    23   13   47 1
    24   13   48 1
    25   14   15 1
    26   14   21 1
    27   14   16 1
    28   16   17 am
    29   17   18 2
    30   17   19 1
    31   19   20 1
    32   19   49 1
    33   19   50 1
    34   20   21 am
    35   20   23 1
    36   21   22 2
    37   23   24 1
    38   23   51 1
    39   23   52 1
    40   24   25 1
    41   24   53 1
    42   24   54 1
    43   25   33 1
    44   25   26 2
    45   26   31 ar
    46   26   27 ar
    47   27   28 ar
    48   27   55 1
    49   28   29 ar
    50   28   56 1
    51   29   30 ar
    52   29   57 1
    53   30   31 ar
    54   30   58 1
    55   31   32 2
    56   32   33 1
    57   32   65 1
    58   33   59 1
    59   33   60 1
    60   34   35 1
    61   34   40 1
    62   34   36 1
    63   36   37 2
    64   36   61 1
    65   37   38 1
    66   37   62 1
    67   38   39 2
    68   38   63 1
    69   39   40 1
    70   39   64 1
    71   40   41 2
@<TRIPOS>MOLECULE
ZINC04474984
   39    43     0     0     0
SMALL
USER_CHARGES
(2-hydroxyphenyl)methyleneaminoBLAHdione
@<TRIPOS>ATOM
      1 C1          9.0764    2.1239    1.0665 C.ar      1 <0>        -0.1348
      2 C2          9.5312    3.2789    0.4530 C.ar      1 <0>        -0.0804
      3 C3          8.6397    4.1548   -0.1364 C.ar      1 <0>        -0.1543
      4 C4          7.2820    3.8787   -0.1221 C.ar      1 <0>         0.1504
      5 C5          6.8165    2.7136    0.5028 C.ar      1 <0>        -0.0968
      6 C6          7.7282    1.8364    1.0950 C.ar      1 <0>        -0.0667
      7 C7          5.3743    2.4127    0.5296 C.2       1 <0>         0.1277
      8 N1          4.5304    3.2304   -0.0219 N.2       1 <0>        -0.2274
      9 N2          3.1591    2.9443    0.0036 N.am      1 <0>        -0.4747
     10 C8          2.6176    1.8145    0.5949 C.2       1 <0>         0.5529
     11 O1          3.1191    1.0684    1.4084 O.2       1 <0>        -0.4553
     12 C9          1.3078    1.7508   -0.0010 C.3       1 <0>        -0.1655
     13 H1          1.5765    1.6561   -1.0531 H         1 <0>         0.1056
     14 C10        -0.0127    1.0858    0.0080 C.3       1 <0>         0.0102
     15 H2          0.0021   -0.0041    0.0020 H         1 <0>         0.1182
     16 C11        -1.0000    1.7331    0.9790 C.2       1 <0>        -0.1592
     17 C12        -1.3154    2.9686    0.5464 C.2       1 <0>        -0.1538
     18 C13        -0.4239    3.2490   -0.7082 C.3       1 <0>        -0.0113
     19 H3         -0.6641    4.0860   -1.3638 H         1 <0>         0.1296
     20 C14         0.9193    3.2893    0.0676 C.3       1 <0>        -0.1235
     21 H4          0.8012    3.6572    1.0868 H         1 <0>         0.1410
     22 C15         2.1969    3.7540   -0.5552 C.2       1 <0>         0.5666
     23 O2          2.3500    4.6411   -1.3674 O.2       1 <0>        -0.4318
     24 C16        -0.5038    1.8164   -1.2943 C.3       1 <0>        -0.1425
     25 C17        -1.5754    1.2954   -2.1941 C.3       1 <0>        -0.1420
     26 C18        -0.1202    1.4111   -2.6789 C.3       1 <0>        -0.1758
     27 O3          6.4056    4.7359   -0.7059 O.3       1 <0>        -0.4757
     28 H5          9.7807    1.4451    1.5242 H         1 <0>         0.1330
     29 H6         10.5889    3.4963    0.4348 H         1 <0>         0.1317
     30 H7          9.0021    5.0535   -0.6133 H         1 <0>         0.1345
     31 H8          7.3776    0.9346    1.5748 H         1 <0>         0.1349
     32 H9          5.0194    1.5119    1.0080 H         1 <0>         0.1471
     33 H10        -1.3794    1.2615    1.8735 H         1 <0>         0.1388
     34 H11        -2.0391    3.6379    0.9875 H         1 <0>         0.1460
     35 H12        -1.9627    0.2966   -1.9925 H         1 <0>         0.1040
     36 H13        -2.2971    2.0114   -2.5872 H         1 <0>         0.1026
     37 H14         0.1136    2.2030   -3.3905 H         1 <0>         0.1032
     38 H15         0.4480    0.4882   -2.7957 H         1 <0>         0.1009
     39 H16         6.0742    5.4240   -0.1128 H         1 <0>         0.3926
@<TRIPOS>BOND
     1    1    6 ar
     2    1    2 ar
     3    1   28 1
     4    2    3 ar
     5    2   29 1
     6    3    4 ar
     7    3   30 1
     8    4    5 ar
     9    4   27 1
    10    5    6 ar
    11    5    7 1
    12    6   31 1
    13    7    8 2
    14    7   32 1
    15    8    9 1
    16    9   22 am
    17    9   10 am
    18   10   11 2
    19   10   12 1
    20   12   13 1
    21   12   20 1
    22   12   14 1
    23   14   15 1
    24   14   24 1
    25   14   16 1
    26   16   17 2
    27   16   33 1
    28   17   18 1
    29   17   34 1
    30   18   19 1
    31   18   20 1
    32   18   24 1
    33   20   21 1
    34   20   22 1
    35   22   23 2
    36   24   26 1
    37   24   25 1
    38   25   26 1
    39   25   35 1
    40   25   36 1
    41   26   37 1
    42   26   38 1
    43   27   39 1
@<TRIPOS>MOLECULE
ZINC14163068
   48    50     0     0     0
SMALL
USER_CHARGES
(1R)-4-[(2R,6R)-2,6-dimethyl-1-piperidyl]-2-oxo-3,5-diazaspiro[5.5]undec-3-ene-1-carbonitrile
@<TRIPOS>ATOM
      1 C1          3.8431    3.8326   -3.9067 C.3       1 <0>        -0.1640
      2 C2          3.3407    2.4005   -3.7130 C.3       1 <0>         0.1368
      3 H1          3.7670    1.9817   -2.8014 H         1 <0>         0.0866
      4 C3          3.7497    1.5397   -4.9179 C.3       1 <0>        -0.1319
      5 C4          3.0375    2.0548   -6.1707 C.3       1 <0>        -0.1239
      6 C5          1.5232    1.9341   -5.9847 C.3       1 <0>        -0.1348
      7 C6          1.0889    2.7940   -4.7936 C.3       1 <0>         0.1543
      8 H2          1.2669    3.8457   -5.0180 H         1 <0>         0.0796
      9 N1          1.8747    2.4018   -3.6157 N.pl3     1 <0>        -0.5665
     10 C7          1.2558    2.0514   -2.4538 C.2       1 <0>         0.7017
     11 N2         -0.0561    2.1799   -2.3399 N.2       1 <0>        -0.6568
     12 C8         -0.7133    1.8379   -1.2406 C.2       1 <0>         0.5275
     13 O1         -1.9161    2.0048   -1.1894 O.2       1 <0>        -0.4902
     14 C9          0.0018    1.2460   -0.0526 C.3       1 <0>        -0.0774
     15 H3         -0.4919    1.5604    0.8670 H         1 <0>         0.1470
     16 C10         1.4524    1.7400   -0.0512 C.3       1 <0>         0.2008
     17 N3          1.9917    1.5682   -1.4081 N.pl3     1 <0>        -0.7463
     18 C11         2.2776    0.9190    0.9375 C.3       1 <0>        -0.1259
     19 C12         3.7267    1.4110    0.9264 C.3       1 <0>        -0.1171
     20 C13         3.7662    2.8885    1.3221 C.3       1 <0>        -0.1226
     21 C14         2.9448    3.7067    0.3238 C.3       1 <0>        -0.1136
     22 C15         1.4948    3.2173    0.3349 C.3       1 <0>        -0.1289
     23 C16        -0.0189   -0.2229   -0.1461 C.1       1 <0>         0.2193
     24 N4         -0.0349   -1.3564   -0.2182 N.1       1 <0>        -0.4116
     25 C17        -0.3992    2.5740   -4.5140 C.3       1 <0>        -0.1345
     26 H4          3.5369    4.4432   -3.0573 H         1 <0>         0.0632
     27 H5          4.9307    3.8295   -3.9786 H         1 <0>         0.0741
     28 H6          3.4196    4.2455   -4.8223 H         1 <0>         0.0691
     29 H7          3.4672    0.5022   -4.7395 H         1 <0>         0.0688
     30 H8          4.8284    1.6037   -5.0604 H         1 <0>         0.0813
     31 H9          3.3458    1.4633   -7.0328 H         1 <0>         0.0694
     32 H10         3.3011    3.0997   -6.3345 H         1 <0>         0.0701
     33 H11         1.2617    0.8928   -5.7963 H         1 <0>         0.0681
     34 H12         1.0173    2.2793   -6.8864 H         1 <0>         0.0810
     35 H13         2.8425    1.1266   -1.5565 H         1 <0>         0.4071
     36 H14         1.8630    1.0328    1.9391 H         1 <0>         0.0928
     37 H15         2.2487   -0.1320    0.6498 H         1 <0>         0.0732
     38 H16         4.1435    1.2914   -0.0736 H         1 <0>         0.0592
     39 H17         4.3136    0.8288    1.6368 H         1 <0>         0.0734
     40 H18         4.7985    3.2386    1.3164 H         1 <0>         0.0671
     41 H19         3.3477    3.0082    2.3214 H         1 <0>         0.0682
     42 H20         3.3617    3.5851   -0.6759 H         1 <0>         0.0629
     43 H21         2.9751    4.7595    0.6046 H         1 <0>         0.0704
     44 H22         0.9104    3.7965   -0.3800 H         1 <0>         0.0747
     45 H23         1.0763    3.3439    1.3334 H         1 <0>         0.0881
     46 H24        -0.7339    3.2786   -3.7527 H         1 <0>         0.0965
     47 H25        -0.9682    2.7315   -5.4302 H         1 <0>         0.0440
     48 H26        -0.5555    1.5550   -4.1598 H         1 <0>         0.0695
@<TRIPOS>BOND
     1    1    2 1
     2    1   26 1
     3    1   27 1
     4    1   28 1
     5    2    3 1
     6    2    9 1
     7    2    4 1
     8    4    5 1
     9    4   29 1
    10    4   30 1
    11    5    6 1
    12    5   31 1
    13    5   32 1
    14    6    7 1
    15    6   33 1
    16    6   34 1
    17    7    8 1
    18    7    9 1
    19    7   25 1
    20    9   10 1
    21   10   17 1
    22   10   11 2
    23   11   12 1
    24   12   13 2
    25   12   14 1
    26   14   15 1
    27   14   16 1
    28   14   23 1
    29   16   22 1
    30   16   17 1
    31   16   18 1
    32   17   35 1
    33   18   19 1
    34   18   36 1
    35   18   37 1
    36   19   20 1
    37   19   38 1
    38   19   39 1
    39   20   21 1
    40   20   40 1
    41   20   41 1
    42   21   22 1
    43   21   42 1
    44   21   43 1
    45   22   44 1
    46   22   45 1
    47   23   24 3
    48   25   46 1
    49   25   47 1
    50   25   48 1
@<TRIPOS>MOLECULE
ZINC37840353
   43    45     0     0     0
SMALL
USER_CHARGES

@<TRIPOS>ATOM
      1 C1         -0.2535   -1.3330   -5.7989 C.3       1 <0>        -0.1275
      2 C2          0.8644   -0.4281   -5.3487 C.2       1 <0>         0.2165
      3 C3          0.9867    0.1419   -4.1275 C.2       1 <0>        -0.8168
      4 C4          2.1602    0.9029   -4.1234 C.2       1 <0>         0.1382
      5 N1          2.7223    0.7937   -5.2998 N.2       1 <0>        -0.2836
      6 N2          1.9258   -0.0458   -6.0892 N.pl3     1 <0>        -0.4614
      7 H1          2.1044   -0.3048   -7.0067 H         1 <0>         0.4426
      8 S1         -0.1346   -0.0415   -2.7808 S.o2      1 <0>         2.7232
      9 O1         -0.4037   -1.4318   -2.6630 O.2       1 <0>        -0.9619
     10 O2          0.3912    0.7263   -1.7070 O.2       1 <0>        -0.9540
     11 N3         -1.5571    0.6798   -3.2264 N.pl3     1 <0>        -0.9954
     12 C5         -2.7363   -0.1271   -3.5763 C.3       1 <0>         0.1118
     13 C6         -3.2486    0.3044   -4.9531 C.3       1 <0>        -0.1346
     14 C7         -3.4884    1.8173   -4.9640 C.3       1 <0>        -0.0849
     15 H2         -4.2187    2.0758   -4.1972 H         1 <0>         0.0746
     16 C8         -2.1711    2.5363   -4.6774 C.3       1 <0>        -0.0905
     17 H3         -1.4299    2.2434   -5.4210 H         1 <0>         0.0718
     18 C9         -1.6776    2.1408   -3.2770 C.3       1 <0>         0.1658
     19 H4         -2.3962    2.4728   -2.5277 H         1 <0>         0.0828
     20 C10        -0.3242    2.8005   -3.0172 C.3       1 <0>        -0.1870
     21 C11        -0.4920    4.3218   -3.0716 C.3       1 <0>        -0.1075
     22 C12        -1.0172    4.7377   -4.4462 C.3       1 <0>        -0.1238
     23 C13        -2.3622    4.0517   -4.7213 C.3       1 <0>        -0.1147
     24 C14        -4.0158    2.2415   -6.3361 C.3       1 <0>        -0.1489
     25 H5          0.0443   -2.3728   -5.6642 H         1 <0>         0.1056
     26 H6         -1.1456   -1.1308   -5.2062 H         1 <0>         0.0952
     27 H7         -0.4675   -1.1497   -6.8518 H         1 <0>         0.0898
     28 H8          2.5370    1.4813   -3.2928 H         1 <0>         0.1997
     29 H9         -2.4613   -1.1815   -3.6039 H         1 <0>         0.0976
     30 H10        -3.5175    0.0274   -2.8320 H         1 <0>         0.0779
     31 H11        -2.5088    0.0491   -5.7117 H         1 <0>         0.0672
     32 H12        -4.1833   -0.2124   -5.1707 H         1 <0>         0.0789
     33 H13         0.0407    2.5088   -2.0324 H         1 <0>         0.1236
     34 H14         0.3878    2.4847   -3.7798 H         1 <0>         0.0709
     35 H15        -1.1988    4.6359   -2.3036 H         1 <0>         0.0667
     36 H16         0.4715    4.7991   -2.8924 H         1 <0>         0.0691
     37 H17        -1.1476    5.8195   -4.4719 H         1 <0>         0.0643
     38 H18        -0.3003    4.4422   -5.2123 H         1 <0>         0.0588
     39 H19        -2.7311    4.3444   -5.7043 H         1 <0>         0.0684
     40 H20        -3.0795    4.3510   -3.9571 H         1 <0>         0.0653
     41 H21        -4.9530    1.7240   -6.5409 H         1 <0>         0.0553
     42 H22        -4.1861    3.3180   -6.3429 H         1 <0>         0.0592
     43 H23        -3.2840    1.9845   -7.1020 H         1 <0>         0.0519
@<TRIPOS>BOND
     1    1    2 1
     2    1   25 1
     3    1   26 1
     4    1   27 1
     5    2    6 1
     6    2    3 2
     7    3    4 1
     8    3    8 1
     9    4    5 2
    10    4   28 1
    11    5    6 1
    12    6    7 1
    13    8    9 2
    14    8   10 2
    15    8   11 1
    16   11   18 1
    17   11   12 1
    18   12   13 1
    19   12   29 1
    20   12   30 1
    21   13   14 1
    22   13   31 1
    23   13   32 1
    24   14   15 1
    25   14   16 1
    26   14   24 1
    27   16   17 1
    28   16   23 1
    29   16   18 1
    30   18   19 1
    31   18   20 1
    32   20   21 1
    33   20   33 1
    34   20   34 1
    35   21   22 1
    36   21   35 1
    37   21   36 1
    38   22   23 1
    39   22   37 1
    40   22   38 1
    41   23   39 1
    42   23   40 1
    43   24   41 1
    44   24   42 1
    45   24   43 1
@<TRIPOS>MOLECULE
ZINC46561587
   40    41     0     0     0
SMALL
USER_CHARGES

@<TRIPOS>ATOM
      1 C1          0.2647   -0.8864   -1.4678 C.3       1 <0>        -0.1380
      2 C2         -0.6159   -0.9264   -0.2173 C.3       1 <0>        -0.1150
      3 C3         -1.7567   -1.9238   -0.4286 C.3       1 <0>        -0.1444
      4 C4          0.2123   -1.3541    0.9668 C.2       1 <0>         0.5212
      5 O1          1.1981   -2.0410    0.8010 O.2       1 <0>        -0.5316
      6 N1         -0.1423   -0.9733    2.2101 N.am      1 <0>        -0.6164
      7 C5         -1.3980   -0.2450    2.4396 C.3       1 <0>         0.0907
      8 C6         -2.2244   -1.0093    3.4814 C.3       1 <0>         0.0820
      9 N2         -1.3626   -1.3153    4.6318 N.am      1 <0>        -0.6089
     10 C7         -0.1069   -2.0436    4.4023 C.3       1 <0>         0.0991
     11 C8          0.7167   -1.2843    3.3612 C.3       1 <0>         0.0973
     12 C9         -1.7173   -0.9346    5.8751 C.2       1 <0>         0.5662
     13 O2         -1.0317   -1.2533    6.8273 O.2       1 <0>        -0.5071
     14 C10        -2.9374   -0.1310    6.0806 C.ar      1 <0>        -0.1458
     15 C11        -4.1630   -0.5731    5.5760 C.ar      1 <0>        -0.0699
     16 C12        -5.2996    0.1827    5.7716 C.ar      1 <0>        -0.0495
     17 C13        -5.2316    1.3802    6.4670 C.ar      1 <0>        -0.0711
     18 C14        -4.0266    1.8277    6.9704 C.ar      1 <0>        -0.1336
     19 C15        -2.8746    1.0770    6.7878 C.ar      1 <0>         0.1627
     20 O3         -1.6910    1.5131    7.2874 O.3       1 <0>        -0.4796
     21 Cl1        -6.8219   -0.3671    5.1438 Cl        1 <0>        -0.0541
     22 H1          0.7430   -1.8559   -1.6066 H         1 <0>         0.0694
     23 H2         -0.3502   -0.6567   -2.3380 H         1 <0>         0.0656
     24 H3          1.0287   -0.1179   -1.3498 H         1 <0>         0.0575
     25 H4         -1.0296    0.0649   -0.0323 H         1 <0>         0.0922
     26 H5         -1.3431   -2.9151   -0.6136 H         1 <0>         0.0649
     27 H6         -2.3841   -1.9523    0.4623 H         1 <0>         0.0585
     28 H7         -2.3558   -1.6144   -1.2851 H         1 <0>         0.0722
     29 H8         -1.1778    0.7561    2.8102 H         1 <0>         0.0764
     30 H9         -1.9576   -0.1776    1.5067 H         1 <0>         0.1036
     31 H10        -3.0632   -0.3937    3.8062 H         1 <0>         0.1043
     32 H11        -2.5954   -1.9368    3.0452 H         1 <0>         0.0809
     33 H12         0.4527   -2.1111    5.3352 H         1 <0>         0.1085
     34 H13        -0.3271   -3.0448    4.0317 H         1 <0>         0.0764
     35 H14         1.5534   -1.9030    3.0368 H         1 <0>         0.1079
     36 H15         1.0910   -0.3588    3.7989 H         1 <0>         0.0736
     37 H16        -4.2200   -1.5052    5.0335 H         1 <0>         0.1440
     38 H17        -6.1265    1.9664    6.6155 H         1 <0>         0.1457
     39 H18        -3.9816    2.7616    7.5110 H         1 <0>         0.1487
     40 H19        -1.1893    2.0724    6.6787 H         1 <0>         0.3956
@<TRIPOS>BOND
     1    1    2 1
     2    1   22 1
     3    1   23 1
     4    1   24 1
     5    2    3 1
     6    2    4 1
     7    2   25 1
     8    3   26 1
     9    3   27 1
    10    3   28 1
    11    4    5 2
    12    4    6 am
    13    6   11 1
    14    6    7 1
    15    7    8 1
    16    7   29 1
    17    7   30 1
    18    8    9 1
    19    8   31 1
    20    8   32 1
    21    9   10 1
    22    9   12 am
    23   10   11 1
    24   10   33 1
    25   10   34 1
    26   11   35 1
    27   11   36 1
    28   12   13 2
    29   12   14 1
    30   14   19 ar
    31   14   15 ar
    32   15   16 ar
    33   15   37 1
    34   16   17 ar
    35   16   21 1
    36   17   18 ar
    37   17   38 1
    38   18   19 ar
    39   18   39 1
    40   19   20 1
    41   20   40 1
@<TRIPOS>MOLECULE
ZINC01409493
   34    36     0     0     0
SMALL
USER_CHARGES

@<TRIPOS>ATOM
      1 C1         -0.0184    1.5028    0.0103 C.3       1 <0>        -0.1684
      2 C2          0.0021   -0.0041    0.0020 C.2       1 <0>         0.4991
      3 O1          1.0602   -0.5960   -0.0113 O.2       1 <0>        -0.4489
      4 N1         -1.1558   -0.6938    0.0094 N.am      1 <0>        -0.6187
      5 C3         -1.1371   -2.0719    0.0018 C.2       1 <0>         0.4196
      6 N2         -0.0806   -2.8559   -0.0067 N.2       1 <0>        -0.6083
      7 C4         -0.1824   -4.1717   -0.0130 C.2       1 <0>         0.5480
      8 O2          0.7865   -4.9156   -0.0206 O.2       1 <0>        -0.4458
      9 C5         -1.5759   -4.6620   -0.0097 C.2       1 <0>        -0.2938
     10 C6         -2.0527   -5.9385   -0.0142 C.2       1 <0>         0.1376
     11 C7         -3.4941   -6.1802   -0.0093 C.2       1 <0>        -0.1986
     12 C8         -4.4917   -5.2296   -0.0063 C.2       1 <0>         0.1221
     13 N3         -5.7011   -5.8430   -0.0021 N.pl3     1 <0>        -0.4649
     14 C9         -5.5484   -7.2146   -0.0022 C.ar      1 <0>         0.0852
     15 C10        -4.1720   -7.4911   -0.0132 C.ar      1 <0>        -0.0739
     16 C11        -3.7240   -8.8090   -0.0218 C.ar      1 <0>        -0.0767
     17 C12        -4.6379   -9.8406   -0.0233 C.ar      1 <0>        -0.1298
     18 C13        -5.9981   -9.5698   -0.0161 C.ar      1 <0>        -0.0980
     19 C14        -6.4552   -8.2697    0.0011 C.ar      1 <0>        -0.1191
     20 C15        -6.9900   -5.1467    0.0024 C.3       1 <0>         0.0675
     21 S1         -2.4594   -3.1100    0.0088 S.3       1 <0>         0.0221
     22 H1          1.0042    1.8801    0.0026 H         1 <0>         0.1049
     23 H2         -0.5455    1.8639   -0.8728 H         1 <0>         0.0982
     24 H3         -0.5286    1.8543    0.9071 H         1 <0>         0.0982
     25 H4         -2.0023   -0.2203    0.0200 H         1 <0>         0.4322
     26 H5         -1.3654   -6.7716   -0.0213 H         1 <0>         0.1623
     27 H6         -4.3347   -4.1611   -0.0068 H         1 <0>         0.1773
     28 H7         -2.6652   -9.0221   -0.0278 H         1 <0>         0.1288
     29 H8         -4.2935  -10.8642   -0.0303 H         1 <0>         0.1292
     30 H9         -6.7059  -10.3855   -0.0177 H         1 <0>         0.1302
     31 H10        -7.5166   -8.0700    0.0046 H         1 <0>         0.1232
     32 H11        -7.3135   -4.9744   -1.0241 H         1 <0>         0.0797
     33 H12        -7.7308   -5.7569    0.5192 H         1 <0>         0.0892
     34 H13        -6.8848   -4.1908    0.5156 H         1 <0>         0.0904
@<TRIPOS>BOND
     1    1    2 1
     2    1   22 1
     3    1   23 1
     4    1   24 1
     5    2    3 2
     6    2    4 am
     7    4    5 1
     8    4   25 1
     9    5   21 1
    10    5    6 2
    11    6    7 1
    12    7    8 2
    13    7    9 1
    14    9   10 2
    15    9   21 1
    16   10   11 1
    17   10   26 1
    18   11   15 1
    19   11   12 2
    20   12   13 1
    21   12   27 1
    22   13   14 1
    23   13   20 1
    24   14   19 ar
    25   14   15 ar
    26   15   16 ar
    27   16   17 ar
    28   16   28 1
    29   17   18 ar
    30   17   29 1
    31   18   19 ar
    32   18   30 1
    33   19   31 1
    34   20   32 1
    35   20   33 1
    36   20   34 1
@<TRIPOS>MOLECULE
ZINC66890336
   44    46     0     0     0
SMALL
USER_CHARGES

@<TRIPOS>ATOM
      1 C1          0.0150    1.5274   -0.0102 C.3       1 <0>        -0.1381
      2 C2          0.0164   -0.0026   -0.0073 C.3       1 <0>         0.1600
      3 H1         -1.0062   -0.3687    0.0831 H         1 <0>         0.0707
      4 C3          0.6330   -0.5180   -1.3116 C.3       1 <0>        -0.1334
      5 C4          0.7593   -2.0417   -1.2443 C.3       1 <0>        -0.1209
      6 C5          1.6835   -2.4281   -0.0873 C.3       1 <0>        -0.1366
      7 C6          1.0788   -1.9343    1.2308 C.3       1 <0>         0.1117
      8 N1          0.8167   -0.4923    1.1233 N.am      1 <0>        -0.6256
      9 C7          1.3040    0.3650    2.0420 C.2       1 <0>         0.7072
     10 O1          0.9948    1.5402    2.0013 O.2       1 <0>        -0.5785
     11 N2          2.1342   -0.0803    3.0059 N.am      1 <0>        -0.7468
     12 C8          2.5743    0.8257    4.0697 C.3       1 <0>         0.1803
     13 C9          3.4893    0.0869    5.0121 C.ar      1 <0>        -0.1165
     14 C10         2.9637   -0.5778    6.1048 C.ar      1 <0>        -0.0695
     15 C11         3.7999   -1.2557    6.9703 C.ar      1 <0>        -0.1355
     16 C12         5.1691   -1.2697    6.7419 C.ar      1 <0>         0.1446
     17 C13         5.6938   -0.6019    5.6439 C.ar      1 <0>        -0.1343
     18 C14         4.8522    0.0703    4.7792 C.ar      1 <0>        -0.0699
     19 N3          6.0206   -1.9568    7.6191 N.pl3     1 <0>        -0.4145
     20 C15         7.3849   -2.0517    7.5233 C.2       1 <0>        -0.0545
     21 C16         7.7981   -2.7980    8.5652 C.2       1 <0>        -0.0190
     22 N4          6.7201   -3.1517    9.2806 N.2       1 <0>        -0.4828
     23 C17         5.6500   -2.6490    8.7275 C.2       1 <0>         0.1900
     24 H2          1.0423    1.8917    0.0012 H         1 <0>         0.0642
     25 H3         -0.4887    1.8886   -0.9068 H         1 <0>         0.0442
     26 H4         -0.5095    1.8919    0.8731 H         1 <0>         0.0800
     27 H5         -0.0066   -0.2426   -2.1501 H         1 <0>         0.0766
     28 H6          1.6206   -0.0767   -1.4464 H         1 <0>         0.0667
     29 H7         -0.2255   -2.4809   -1.0847 H         1 <0>         0.0653
     30 H8          1.1750   -2.4133   -2.1808 H         1 <0>         0.0671
     31 H9          1.7915   -3.5122   -0.0544 H         1 <0>         0.0764
     32 H10         2.6611   -1.9688   -0.2336 H         1 <0>         0.0670
     33 H11         0.1436   -2.4601    1.4234 H         1 <0>         0.0713
     34 H12         1.7787   -2.1190    2.0458 H         1 <0>         0.0750
     35 H13         2.4403   -1.0007    2.9952 H         1 <0>         0.3947
     36 H14         3.1081    1.6687    3.6312 H         1 <0>         0.0784
     37 H15         1.7060    1.1910    4.6181 H         1 <0>         0.0774
     38 H16         1.8984   -0.5665    6.2819 H         1 <0>         0.1371
     39 H17         3.3889   -1.7741    7.8239 H         1 <0>         0.1353
     40 H18         6.7587   -0.6108    5.4640 H         1 <0>         0.1339
     41 H19         5.2594    0.5866    3.9224 H         1 <0>         0.1361
     42 H20         8.0086   -1.6126    6.7587 H         1 <0>         0.1790
     43 H21         8.8207   -3.0659    8.7863 H         1 <0>         0.1766
     44 H22         4.6391   -2.7662    9.0890 H         1 <0>         0.2096
@<TRIPOS>BOND
     1    1    2 1
     2    1   24 1
     3    1   25 1
     4    1   26 1
     5    2    3 1
     6    2    8 1
     7    2    4 1
     8    4    5 1
     9    4   27 1
    10    4   28 1
    11    5    6 1
    12    5   29 1
    13    5   30 1
    14    6    7 1
    15    6   31 1
    16    6   32 1
    17    7    8 1
    18    7   33 1
    19    7   34 1
    20    8    9 am
    21    9   10 2
    22    9   11 am
    23   11   12 1
    24   11   35 1
    25   12   13 1
    26   12   36 1
    27   12   37 1
    28   13   18 ar
    29   13   14 ar
    30   14   15 ar
    31   14   38 1
    32   15   16 ar
    33   15   39 1
    34   16   17 ar
    35   16   19 1
    36   17   18 ar
    37   17   40 1
    38   18   41 1
    39   19   23 1
    40   19   20 1
    41   20   21 2
    42   20   42 1
    43   21   22 1
    44   21   43 1
    45   22   23 2
    46   23   44 1
@<TRIPOS>MOLECULE
ZINC09762032
   23    24     0     0     0
SMALL
USER_CHARGES
2-[(8-chloro-5,5-dioxo-5$l^{6}-thia-2,4-diazabicyclo[4.4.0]deca-3,6,8,10-tetraen-3-yl)sulfanyl]acetonitrile
@<TRIPOS>ATOM
      1 C1          0.0021   -0.0041    0.0020 C.ar      1 <0>        -0.0281
      2 C2         -0.0167    1.3770    0.0096 C.ar      1 <0>        -0.1394
      3 C3          1.1776    2.0866    0.0020 C.ar      1 <0>         0.2289
      4 C4          2.3833    1.3935   -0.0158 C.ar      1 <0>        -0.6978
      5 C5          2.3999    0.0171   -0.0227 C.ar      1 <0>         0.0226
      6 C6          1.2059   -0.6859   -0.0134 C.ar      1 <0>        -0.0658
      7 Cl1         1.2204   -2.4218   -0.0205 Cl        1 <0>        -0.0443
      8 S1          3.8868    2.3159   -0.0315 S.o2      1 <0>         2.6362
      9 O1          4.3689    2.3374    1.3050 O.2       1 <0>        -0.9402
     10 O2          4.6583    1.8242   -1.1188 O.2       1 <0>        -0.9320
     11 N1          3.4611    3.8726   -0.4120 N.2       1 <0>        -0.9480
     12 C7          2.2265    4.2574   -0.3539 C.2       1 <0>         0.4908
     13 N2          1.1717    3.4795    0.0158 N.pl3     1 <0>        -0.6536
     14 S2          1.8815    5.9291   -0.7909 S.3       1 <0>         0.0539
     15 C8          3.5524    6.5018   -1.1863 C.3       1 <0>        -0.0144
     16 C9          3.5036    7.9167   -1.5895 C.1       1 <0>         0.2058
     17 N3          3.4658    9.0086   -1.9007 N.1       1 <0>        -0.3825
     18 H1         -0.9272   -0.5543    0.0085 H         1 <0>         0.1544
     19 H2         -0.9589    1.9047    0.0170 H         1 <0>         0.1542
     20 H3          3.3407   -0.5133   -0.0350 H         1 <0>         0.1531
     21 H4          0.3615    3.9254    0.3086 H         1 <0>         0.4360
     22 H5          4.1900    6.3960   -0.3086 H         1 <0>         0.1549
     23 H6          3.9572    5.9049   -2.0035 H         1 <0>         0.1553
@<TRIPOS>BOND
     1    1    6 ar
     2    1    2 ar
     3    1   18 1
     4    2    3 ar
     5    2   19 1
     6    3   13 1
     7    3    4 ar
     8    4    5 ar
     9    4    8 1
    10    5    6 ar
    11    5   20 1
    12    6    7 1
    13    8    9 2
    14    8   10 2
    15    8   11 1
    16   11   12 2
    17   12   13 1
    18   12   14 1
    19   13   21 1
    20   14   15 1
    21   15   16 1
    22   15   22 1
    23   15   23 1
    24   16   17 3
@<TRIPOS>MOLECULE
ZINC36153491
   33    36     0     0     0
SMALL
USER_CHARGES

@<TRIPOS>ATOM
      1 C1         -0.0163    1.3513    0.0095 C.2       1 <0>        -0.1653
      2 C2          1.1833    2.0380    0.0017 C.2       1 <0>        -0.1212
      3 C3          2.3426    1.3358   -0.0131 C.2       1 <0>        -0.1768
      4 S1          1.7535   -0.3495   -0.0166 S.3       1 <0>         0.0900
      5 C4          0.0021   -0.0041    0.0020 C.2       1 <0>        -0.1608
      6 C5          3.7608    1.8454   -0.0244 C.3       1 <0>         0.1665
      7 H1          3.7740    2.8751    0.3329 H         1 <0>         0.0929
      8 C6          4.3013    1.8028   -1.4623 C.3       1 <0>        -0.1150
      9 S2          5.8933    2.6994   -1.4614 S.3       1 <0>         0.0307
     10 C7          6.5914    2.1205    0.0561 C.2       1 <0>         0.1522
     11 N1          7.7986    2.2637    0.5132 N.2       1 <0>        -0.2445
     12 N2          7.8867    1.6979    1.6690 N.2       1 <0>        -0.2543
     13 C8          6.7408    1.1662    1.9987 C.2       1 <0>         0.1760
     14 N3          5.8702    1.4070    0.9761 N.pl3     1 <0>        -0.3111
     15 N4          4.5755    1.0183    0.8640 N.3       1 <0>        -0.4515
     16 C9          6.4358    0.4233    3.2739 C.3       1 <0>         0.1727
     17 H2          5.5087   -0.1387    3.1616 H         1 <0>         0.1003
     18 C10         6.3042    1.4225    4.4434 C.3       1 <0>        -0.1476
     19 C11         6.9968    0.6615    5.6066 C.3       1 <0>        -0.1525
     20 C12         8.1075   -0.0996    4.8400 C.3       1 <0>         0.0473
     21 O1          7.5112   -0.4703    3.5847 O.3       1 <0>        -0.3529
     22 H3         -0.9542    1.8866    0.0258 H         1 <0>         0.1398
     23 H4          1.1967    3.1179    0.0070 H         1 <0>         0.1372
     24 H5         -0.8275   -0.6955    0.0065 H         1 <0>         0.1906
     25 H6          4.4569    0.7689   -1.7705 H         1 <0>         0.1166
     26 H7          3.5995    2.2917   -2.1380 H         1 <0>         0.1422
     27 H8          4.1450    0.9307    1.7724 H         1 <0>         0.3806
     28 H9          6.8289    2.3516    4.2208 H         1 <0>         0.0877
     29 H10         5.2562    1.6134    4.6744 H         1 <0>         0.0888
     30 H11         7.4240    1.3554    6.3306 H         1 <0>         0.0914
     31 H12         6.3070   -0.0311    6.0888 H         1 <0>         0.0839
     32 H13         8.9665    0.5507    4.6742 H         1 <0>         0.0714
     33 H14         8.4071   -0.9898    5.3931 H         1 <0>         0.0946
@<TRIPOS>BOND
     1    1    5 2
     2    1    2 1
     3    1   22 1
     4    2    3 2
     5    2   23 1
     6    3    4 1
     7    3    6 1
     8    4    5 1
     9    5   24 1
    10    6    7 1
    11    6   15 1
    12    6    8 1
    13    8    9 1
    14    8   25 1
    15    8   26 1
    16    9   10 1
    17   10   14 1
    18   10   11 2
    19   11   12 1
    20   12   13 2
    21   13   14 1
    22   13   16 1
    23   14   15 1
    24   15   27 1
    25   16   17 1
    26   16   21 1
    27   16   18 1
    28   18   19 1
    29   18   28 1
    30   18   29 1
    31   19   20 1
    32   19   30 1
    33   19   31 1
    34   20   21 1
    35   20   32 1
    36   20   33 1
@<TRIPOS>MOLECULE
ZINC41546781
   41    43     0     0     0
SMALL
USER_CHARGES

@<TRIPOS>ATOM
      1 C1         -0.2882    1.5364    0.1090 C.3       1 <0>        -0.1466
      2 C2         -0.2769    0.0065    0.0929 C.3       1 <0>        -0.1067
      3 H1         -1.2905   -0.3663    0.2405 H         1 <0>         0.0748
      4 C3          0.2576   -0.4862   -1.2538 C.3       1 <0>        -0.1164
      5 C4          0.2384   -2.0162   -1.2832 C.3       1 <0>        -0.1388
      6 C5          1.1484   -2.5557   -0.1752 C.3       1 <0>         0.0948
      7 N1          0.7303   -1.9716    1.1064 N.am      1 <0>        -0.5969
      8 C6          0.6266   -0.5101    1.2170 C.3       1 <0>         0.1151
      9 C7          0.4467   -2.7613    2.1611 C.2       1 <0>         0.5378
     10 O1          0.1674   -2.2656    3.2321 O.2       1 <0>        -0.4879
     11 C8          0.4766   -4.2604    2.0095 C.3       1 <0>         0.0906
     12 C9          0.4335   -4.9036    3.3726 C.2       1 <0>         0.5015
     13 O2         -0.0891   -4.3258    4.3022 O.2       1 <0>        -0.4574
     14 N2          0.9784   -6.1249    3.5539 N.am      1 <0>        -0.6603
     15 C10         1.6872   -6.7205    2.5016 C.ar      1 <0>         0.0995
     16 C11         2.0615   -8.0530    2.5697 C.ar      1 <0>        -0.1255
     17 C12         2.7489   -8.6292    1.5175 C.ar      1 <0>        -0.1047
     18 C13         3.0630   -7.8799    0.3985 C.ar      1 <0>        -0.1117
     19 C14         2.6967   -6.5483    0.3267 C.ar      1 <0>        -0.1018
     20 C15         2.0133   -5.9629    1.3788 C.ar      1 <0>         0.0679
     21 O3          1.6752   -4.6462    1.3332 O.3       1 <0>        -0.2873
     22 C16        -0.7363   -4.7141    1.1947 C.3       1 <0>        -0.1732
     23 H2          0.7256    1.9087   -0.0386 H         1 <0>         0.0579
     24 H3         -0.9302    1.9034   -0.6916 H         1 <0>         0.0604
     25 H4         -0.6678    1.8868    1.0688 H         1 <0>         0.0588
     26 H5         -0.3699   -0.0997   -2.0569 H         1 <0>         0.0680
     27 H6          1.2798   -0.1332   -1.3899 H         1 <0>         0.0666
     28 H7         -0.7798   -2.3705   -1.1224 H         1 <0>         0.0667
     29 H8          0.5972   -2.3660   -2.2512 H         1 <0>         0.0794
     30 H9          1.0620   -3.6412   -0.1276 H         1 <0>         0.1057
     31 H10         2.1817   -2.2782   -0.3835 H         1 <0>         0.0745
     32 H11         1.6174   -0.0657    1.1228 H         1 <0>         0.0724
     33 H12         0.1957   -0.2458    2.1827 H         1 <0>         0.0942
     34 H13         0.8808   -6.5849    4.4023 H         1 <0>         0.4195
     35 H14         1.8171   -8.6399    3.4427 H         1 <0>         0.1347
     36 H15         3.0416   -9.6674    1.5698 H         1 <0>         0.1342
     37 H16         3.5967   -8.3362   -0.4221 H         1 <0>         0.1363
     38 H17         2.9433   -5.9660   -0.5488 H         1 <0>         0.1406
     39 H18        -0.7071   -4.2483    0.2096 H         1 <0>         0.0930
     40 H19        -0.7152   -5.7983    1.0847 H         1 <0>         0.0815
     41 H20        -1.6507   -4.4188    1.7092 H         1 <0>         0.0889
@<TRIPOS>BOND
     1    1    2 1
     2    1   23 1
     3    1   24 1
     4    1   25 1
     5    2    3 1
     6    2    8 1
     7    2    4 1
     8    4    5 1
     9    4   26 1
    10    4   27 1
    11    5    6 1
    12    5   28 1
    13    5   29 1
    14    6    7 1
    15    6   30 1
    16    6   31 1
    17    7    8 1
    18    7    9 am
    19    8   32 1
    20    8   33 1
    21    9   10 2
    22    9   11 1
    23   11   21 1
    24   11   12 1
    25   11   22 1
    26   12   13 2
    27   12   14 am
    28   14   15 1
    29   14   34 1
    30   15   20 ar
    31   15   16 ar
    32   16   17 ar
    33   16   35 1
    34   17   18 ar
    35   17   36 1
    36   18   19 ar
    37   18   37 1
    38   19   20 ar
    39   19   38 1
    40   20   21 1
    41   22   39 1
    42   22   40 1
    43   22   41 1
@<TRIPOS>MOLECULE
ZINC49023659
   36    37     0     0     0
SMALL
USER_CHARGES

@<TRIPOS>ATOM
      1 C1         -0.0132    1.5284   -0.0247 C.3       1 <0>        -0.1503
      2 C2          0.0056   -0.0014   -0.0244 C.3       1 <0>        -0.0122
      3 H1          0.5202   -0.3586   -0.9165 H         1 <0>         0.1186
      4 C3          0.7382   -0.5022    1.2219 C.3       1 <0>         0.1404
      5 N1          2.1447   -0.0974    1.1573 N.am      1 <0>        -0.6237
      6 C4          2.5644    1.1859    1.7260 C.3       1 <0>         0.0652
      7 C5          3.0525   -0.9055    0.5747 C.2       1 <0>         0.7065
      8 O1          2.7041   -1.9705    0.1028 O.2       1 <0>        -0.5628
      9 N2          4.3464   -0.5330    0.5153 N.am      1 <0>        -0.6789
     10 C6          5.3021   -1.4092   -0.0035 C.ar      1 <0>         0.1587
     11 C7          4.9799   -2.2574   -1.0423 C.ar      1 <0>        -0.1000
     12 C8          5.9257   -3.1339   -1.5657 C.ar      1 <0>        -0.0972
     13 C9          7.1941   -3.1807   -1.0707 C.ar      1 <0>        -0.1022
     14 C10         7.5624   -2.3336   -0.0141 C.ar      1 <0>        -0.0977
     15 C11         6.6074   -1.4327    0.5238 C.ar      1 <0>        -0.0358
     16 C12         7.0045   -0.5928    1.5781 C.ar      1 <0>        -0.1591
     17 C13         8.2859   -0.6759    2.0333 C.ar      1 <0>         0.0796
     18 N3          9.1609   -1.5232    1.5093 N.ar      1 <0>        -0.4880
     19 C14         8.8569   -2.3440    0.5314 C.ar      1 <0>         0.1513
     20 C15        -1.3761   -0.5091   -0.0186 C.1       1 <0>         0.2085
     21 N4         -2.4424   -0.9009   -0.0141 N.1       1 <0>        -0.4223
     22 H2          1.0099    1.9044   -0.0290 H         1 <0>         0.0776
     23 H3         -0.5351    1.8852   -0.9126 H         1 <0>         0.0682
     24 H4         -0.5278    1.8856    0.8673 H         1 <0>         0.0672
     25 H5          0.2771   -0.0731    2.1114 H         1 <0>         0.0937
     26 H6          0.6749   -1.5894    1.2683 H         1 <0>         0.0982
     27 H7          2.8416    1.0469    2.7709 H         1 <0>         0.0646
     28 H8          3.4213    1.5666    1.1703 H         1 <0>         0.0684
     29 H9          1.7425    1.8988    1.6598 H         1 <0>         0.0887
     30 H10         4.6138    0.3437    0.8329 H         1 <0>         0.4076
     31 H11         3.9816   -2.2415   -1.4541 H         1 <0>         0.1473
     32 H12         5.6491   -3.7889   -2.3787 H         1 <0>         0.1324
     33 H13         7.9140   -3.8680   -1.4900 H         1 <0>         0.1360
     34 H14         6.3077    0.1050    2.0187 H         1 <0>         0.1306
     35 H15         8.5978   -0.0334    2.8433 H         1 <0>         0.1538
     36 H16         9.6041   -3.0175    0.1385 H         1 <0>         0.1668
@<TRIPOS>BOND
     1    1    2 1
     2    1   22 1
     3    1   23 1
     4    1   24 1
     5    2    3 1
     6    2    4 1
     7    2   20 1
     8    4    5 1
     9    4   25 1
    10    4   26 1
    11    5    6 1
    12    5    7 am
    13    6   27 1
    14    6   28 1
    15    6   29 1
    16    7    8 2
    17    7    9 am
    18    9   10 1
    19    9   30 1
    20   10   15 ar
    21   10   11 ar
    22   11   12 ar
    23   11   31 1
    24   12   13 ar
    25   12   32 1
    26   13   14 ar
    27   13   33 1
    28   14   19 ar
    29   14   15 ar
    30   15   16 ar
    31   16   17 ar
    32   16   34 1
    33   17   18 ar
    34   17   35 1
    35   18   19 ar
    36   19   36 1
    37   20   21 3
@<TRIPOS>MOLECULE
ZINC25307914
   36    38     0     0     0
SMALL
USER_CHARGES

@<TRIPOS>ATOM
      1 C1         -0.0184    1.5028    0.0103 C.3       1 <0>        -0.1161
      2 C2          0.0021   -0.0041    0.0020 C.ar      1 <0>        -0.0426
      3 C3          0.0057   -0.6853   -1.2089 C.ar      1 <0>        -0.1513
      4 C4          0.0241   -2.0492   -1.2388 C.ar      1 <0>        -0.0180
      5 C5          0.0400   -2.7724   -0.0389 C.ar      1 <0>        -0.1268
      6 C6          0.0599   -4.1557    0.2625 C.2       1 <0>        -0.0886
      7 C7          0.0682   -4.2843    1.6152 C.2       1 <0>         0.0060
      8 N1          0.0543   -3.0281    2.1896 N.pl3     1 <0>        -0.5813
      9 H1          0.0562   -2.8424    3.1417 H         1 <0>         0.4159
     10 C8          0.0368   -2.0842    1.1900 C.ar      1 <0>         0.1271
     11 C9          0.0227   -0.6920    1.1944 C.ar      1 <0>        -0.1466
     12 C10         0.0883   -5.5576    2.3503 C.2       1 <0>         0.5881
     13 O1          0.0990   -6.6112    1.7419 O.2       1 <0>        -0.5078
     14 N2          0.0950   -5.5575    3.6981 N.am      1 <0>        -0.6410
     15 C11         0.1142   -6.7759    4.4015 C.2       1 <0>        -0.0037
     16 C12         0.1342   -8.0579    3.8327 C.2       1 <0>         0.0546
     17 N3          0.1490   -8.9376    4.8010 N.2       1 <0>        -0.2815
     18 N4          0.1390   -8.2508    6.0217 N.pl3     1 <0>        -0.3727
     19 C13         0.1227   -6.9197    5.7515 C.2       1 <0>         0.0223
     20 C14         0.1497   -8.8601    7.3540 C.3       1 <0>         0.1050
     21 C15         0.0268   -2.7760   -2.5590 C.3       1 <0>        -0.1193
     22 H2          1.0042    1.8801    0.0026 H         1 <0>         0.0736
     23 H3         -0.5455    1.8639   -0.8728 H         1 <0>         0.0701
     24 H4         -0.5286    1.8543    0.9071 H         1 <0>         0.0670
     25 H5         -0.0066   -0.1300   -2.1351 H         1 <0>         0.1257
     26 H6          0.0669   -4.9637   -0.4541 H         1 <0>         0.1574
     27 H7          0.0239   -0.1534    2.1305 H         1 <0>         0.1225
     28 H8          0.0865   -4.7176    4.1831 H         1 <0>         0.4050
     29 H9          0.1365   -8.2808    2.7760 H         1 <0>         0.2077
     30 H10         0.1159   -6.1210    6.4785 H         1 <0>         0.1779
     31 H11         1.1799   -8.9944    7.6837 H         1 <0>         0.0766
     32 H12        -0.3743   -8.2103    8.0549 H         1 <0>         0.0882
     33 H13        -0.3484   -9.8288    7.3145 H         1 <0>         0.0920
     34 H14         1.0550   -2.9372   -2.8829 H         1 <0>         0.0751
     35 H15        -0.4734   -3.7378   -2.4453 H         1 <0>         0.0699
     36 H16        -0.4993   -2.1786   -3.3036 H         1 <0>         0.0697
@<TRIPOS>BOND
     1    1    2 1
     2    1   22 1
     3    1   23 1
     4    1   24 1
     5    2   11 ar
     6    2    3 ar
     7    3    4 ar
     8    3   25 1
     9    4    5 ar
    10    4   21 1
    11    5   10 ar
    12    5    6 1
    13    6    7 2
    14    6   26 1
    15    7    8 1
    16    7   12 1
    17    8    9 1
    18    8   10 1
    19   10   11 ar
    20   11   27 1
    21   12   13 2
    22   12   14 am
    23   14   15 1
    24   14   28 1
    25   15   19 2
    26   15   16 1
    27   16   17 2
    28   16   29 1
    29   17   18 1
    30   18   19 1
    31   18   20 1
    32   19   30 1
    33   20   31 1
    34   20   32 1
    35   20   33 1
    36   21   34 1
    37   21   35 1
    38   21   36 1
@<TRIPOS>MOLECULE
ZINC00235447
   31    32     0     0     0
SMALL
USER_CHARGES
3-amino-5,6-dimethyl-2-propyl-thieno[3,2-e]pyrimidin-4-one
@<TRIPOS>ATOM
      1 C1         -0.0366    1.0992   -2.4903 C.3       1 <0>        -0.1558
      2 C2         -0.7527    1.5927   -1.2315 C.3       1 <0>        -0.1098
      3 C3         -0.0127    1.0858    0.0080 C.3       1 <0>        -0.0673
      4 C4         -0.7181    1.5718    1.2479 C.2       1 <0>         0.4159
      5 N1         -1.7872    2.3126    1.1290 N.2       1 <0>        -0.4775
      6 C5         -2.4369    2.7547    2.2018 C.2       1 <0>         0.1084
      7 C6         -2.0047    2.4600    3.5074 C.2       1 <0>        -0.2472
      8 C7         -2.8217    3.0230    4.5660 C.2       1 <0>        -0.0593
      9 C8         -3.8961    3.7605    4.2428 C.2       1 <0>        -0.1651
     10 S1         -3.8836    3.7489    2.4600 S.3       1 <0>         0.1427
     11 C9         -4.8775    4.4358    5.1657 C.3       1 <0>        -0.0678
     12 C10        -2.4683    2.7832    6.0113 C.3       1 <0>        -0.1053
     13 C11        -0.8262    1.6500    3.6014 C.2       1 <0>         0.5370
     14 O1         -0.3732    1.3401    4.6898 O.2       1 <0>        -0.5264
     15 N2         -0.2278    1.2365    2.4689 N.am      1 <0>        -0.3659
     16 N3          0.8960    0.4641    2.5496 N.3       1 <0>        -0.6016
     17 H1         -0.5637    1.4603   -3.3734 H         1 <0>         0.0608
     18 H2          0.9860    1.4765   -2.4981 H         1 <0>         0.0565
     19 H3         -0.0218    0.0093   -2.4963 H         1 <0>         0.0551
     20 H4         -1.7753    1.2154   -1.2238 H         1 <0>         0.0738
     21 H5         -0.7675    2.6825   -1.2255 H         1 <0>         0.0757
     22 H6          0.0021   -0.0041    0.0020 H         1 <0>         0.0993
     23 H7          1.0099    1.4631    0.0003 H         1 <0>         0.1123
     24 H8         -4.5323    5.4457    5.3872 H         1 <0>         0.0818
     25 H9         -5.8548    4.4831    4.6852 H         1 <0>         0.0766
     26 H10        -4.9554    3.8671    6.0923 H         1 <0>         0.0847
     27 H11        -1.8014    3.5726    6.3580 H         1 <0>         0.0725
     28 H12        -3.3773    2.7853    6.6128 H         1 <0>         0.0683
     29 H13        -1.9705    1.8184    6.1083 H         1 <0>         0.0806
     30 H14         1.1483    0.2920    3.5113 H         1 <0>         0.3866
     31 H15         0.7761   -0.4024    2.0466 H         1 <0>         0.3603
@<TRIPOS>BOND
     1    1    2 1
     2    1   17 1
     3    1   18 1
     4    1   19 1
     5    2    3 1
     6    2   20 1
     7    2   21 1
     8    3    4 1
     9    3   22 1
    10    3   23 1
    11    4   15 1
    12    4    5 2
    13    5    6 1
    14    6   10 1
    15    6    7 2
    16    7    8 1
    17    7   13 1
    18    8    9 2
    19    8   12 1
    20    9   10 1
    21    9   11 1
    22   11   24 1
    23   11   25 1
    24   11   26 1
    25   12   27 1
    26   12   28 1
    27   12   29 1
    28   13   14 2
    29   13   15 am
    30   15   16 1
    31   16   30 1
    32   16   31 1
@<TRIPOS>MOLECULE
ZINC31158464
   31    32     0     0     0
SMALL
USER_CHARGES

@<TRIPOS>ATOM
      1 C1         -0.0184    1.5028    0.0103 C.3       1 <0>        -0.1166
      2 C2          0.0021   -0.0041    0.0020 C.ar      1 <0>        -0.0649
      3 C3          0.0059   -0.6923   -1.1919 C.ar      1 <0>        -0.1053
      4 C4          0.0247   -2.0850   -1.2130 C.ar      1 <0>         0.0989
      5 C5          0.0417   -2.8080   -0.0323 C.ar      1 <0>        -0.0758
      6 C6          0.0401   -2.1287    1.1793 C.ar      1 <0>        -0.1653
      7 C7          0.0231   -0.7122    1.2001 C.ar      1 <0>        -0.0086
      8 C8          0.0192   -0.0558    2.5122 C.2       1 <0>        -0.1867
      9 C9          0.2871   -0.7894    3.6050 C.2       1 <0>         0.0991
     10 O1          0.5736   -2.1047    3.5251 O.3       1 <0>        -0.2854
     11 C10         0.0621   -2.8114    2.4830 C.2       1 <0>         0.5318
     12 O2         -0.3431   -3.9511    2.6155 O.2       1 <0>        -0.4334
     13 C11         0.2676   -0.1243    4.9571 C.3       1 <0>        -0.0669
     14 C12        -1.1058   -0.3204    5.6022 C.3       1 <0>         0.1013
     15 H1         -1.3422   -1.3839    5.6375 H         1 <0>         0.0607
     16 C13        -1.0872    0.2453    7.0236 C.3       1 <0>        -0.1859
     17 O3         -2.0962    0.3623    4.8307 O.3       1 <0>        -0.5656
     18 O4          0.0258   -2.7403   -2.4038 O.3       1 <0>        -0.4924
     19 H2          1.0042    1.8801    0.0026 H         1 <0>         0.0784
     20 H3         -0.5455    1.8639   -0.8728 H         1 <0>         0.0736
     21 H4         -0.5286    1.8543    0.9071 H         1 <0>         0.0754
     22 H5         -0.0062   -0.1451   -2.1229 H         1 <0>         0.1398
     23 H6          0.0558   -3.8877   -0.0531 H         1 <0>         0.1452
     24 H7         -0.1951    0.9992    2.5980 H         1 <0>         0.1578
     25 H8          1.0340   -0.5691    5.5919 H         1 <0>         0.1043
     26 H9          0.4656    0.9412    4.8408 H         1 <0>         0.1074
     27 H10        -0.8509    1.3088    6.9883 H         1 <0>         0.0679
     28 H11        -2.0657    0.1056    7.4831 H         1 <0>         0.0638
     29 H12        -0.3317   -0.2754    7.6120 H         1 <0>         0.0701
     30 H13        -2.9935    0.2808    5.1820 H         1 <0>         0.3829
     31 H14         0.9094   -2.9179   -2.7542 H         1 <0>         0.3944
@<TRIPOS>BOND
     1    1    2 1
     2    1   19 1
     3    1   20 1
     4    1   21 1
     5    2    7 ar
     6    2    3 ar
     7    3    4 ar
     8    3   22 1
     9    4    5 ar
    10    4   18 1
    11    5    6 ar
    12    5   23 1
    13    6   11 1
    14    6    7 ar
    15    7    8 1
    16    8    9 2
    17    8   24 1
    18    9   10 1
    19    9   13 1
    20   10   11 1
    21   11   12 2
    22   13   14 1
    23   13   25 1
    24   13   26 1
    25   14   15 1
    26   14   16 1
    27   14   17 1
    28   16   27 1
    29   16   28 1
    30   16   29 1
    31   17   30 1
    32   18   31 1
@<TRIPOS>MOLECULE
ZINC45047548
   35    35     0     0     0
SMALL
USER_CHARGES

@<TRIPOS>ATOM
      1 C1         -0.0187    1.5258    0.0104 C.3       1 <0>        -0.1516
      2 C2          0.0021   -0.0041    0.0020 C.3       1 <0>        -0.0269
      3 H1          0.5123   -0.3556   -0.8948 H         1 <0>         0.1213
      4 C3          0.7309   -0.5033    1.2229 C.2       1 <0>         0.5151
      5 O1          0.5011   -0.0144    2.3083 O.2       1 <0>        -0.4403
      6 N1          1.6383   -1.4932    1.1082 N.am      1 <0>        -0.6893
      7 C4          2.2902   -1.9397    2.2001 C.2       1 <0>         0.6953
      8 O2          2.0598   -1.4496    3.2882 O.2       1 <0>        -0.5205
      9 N2          3.1976   -2.9296    2.0854 N.am      1 <0>        -0.7254
     10 C5          3.9061   -3.4149    3.2723 C.3       1 <0>         0.1946
     11 C6          2.8945   -3.9563    4.2844 C.3       1 <0>        -0.1341
     12 C7          2.1081   -5.1072    3.6537 C.3       1 <0>        -0.1159
     13 C8          3.0734   -6.2237    3.2505 C.3       1 <0>        -0.1213
     14 C9          4.0850   -5.6824    2.2384 C.3       1 <0>        -0.1198
     15 C10         4.8714   -4.5314    2.8690 C.3       1 <0>        -0.1218
     16 C11         4.6925   -2.2639    3.9030 C.3       1 <0>        -0.1676
     17 Cl1        -1.6894   -0.6281    0.0148 Cl        1 <0>        -0.1301
     18 H2          1.0039    1.9031    0.0027 H         1 <0>         0.0792
     19 H3         -0.5459    1.8868   -0.8726 H         1 <0>         0.0845
     20 H4         -0.5289    1.8773    0.9072 H         1 <0>         0.0841
     21 H5          1.8222   -1.8843    0.2398 H         1 <0>         0.4098
     22 H6          3.3815   -3.3207    1.2170 H         1 <0>         0.3965
     23 H7          3.4217   -4.3173    5.1675 H         1 <0>         0.0716
     24 H8          2.2068   -3.1609    4.5717 H         1 <0>         0.0868
     25 H9          1.3874   -5.4929    4.3748 H         1 <0>         0.0619
     26 H10         1.5809   -4.7461    2.7707 H         1 <0>         0.0573
     27 H11         3.6005   -6.5848    4.1335 H         1 <0>         0.0638
     28 H12         2.5131   -7.0437    2.8012 H         1 <0>         0.0617
     29 H13         4.7727   -6.4778    1.9511 H         1 <0>         0.0669
     30 H14         3.5578   -5.3213    1.3553 H         1 <0>         0.0591
     31 H15         5.5921   -4.1457    2.1480 H         1 <0>         0.0702
     32 H16         5.3986   -4.8925    3.7521 H         1 <0>         0.0833
     33 H17         4.0048   -1.4685    4.1903 H         1 <0>         0.0803
     34 H18         5.2197   -2.6250    4.7860 H         1 <0>         0.0662
     35 H19         5.4132   -1.8783    3.1819 H         1 <0>         0.0549
@<TRIPOS>BOND
     1    1    2 1
     2    1   18 1
     3    1   19 1
     4    1   20 1
     5    2    3 1
     6    2    4 1
     7    2   17 1
     8    4    5 2
     9    4    6 am
    10    6    7 am
    11    6   21 1
    12    7    8 2
    13    7    9 am
    14    9   10 1
    15    9   22 1
    16   10   15 1
    17   10   11 1
    18   10   16 1
    19   11   12 1
    20   11   23 1
    21   11   24 1
    22   12   13 1
    23   12   25 1
    24   12   26 1
    25   13   14 1
    26   13   27 1
    27   13   28 1
    28   14   15 1
    29   14   29 1
    30   14   30 1
    31   15   31 1
    32   15   32 1
    33   16   33 1
    34   16   34 1
    35   16   35 1
@<TRIPOS>MOLECULE
ZINC57580050
   39    41     0     0     0
SMALL
USER_CHARGES

@<TRIPOS>ATOM
      1 C1          1.1217   -1.9349    0.0974 C.3       1 <0>        -0.1512
      2 C2          0.2590   -1.1414   -0.8859 C.3       1 <0>        -0.1302
      3 C3         -1.2098   -1.2374   -0.4683 C.3       1 <0>         0.1753
      4 H1         -1.3152   -0.9261    0.5710 H         1 <0>         0.0584
      5 C4         -1.6944   -2.6823   -0.6232 C.3       1 <0>        -0.1321
      6 C5         -3.1967   -2.7457   -0.3382 C.3       1 <0>        -0.1176
      7 C6         -3.9465   -1.8738   -1.3481 C.3       1 <0>        -0.1369
      8 C7         -3.4874   -0.4197   -1.2013 C.3       1 <0>         0.1451
      9 N1         -2.0242   -0.3677   -1.3280 N.pl3     1 <0>        -0.6782
     10 C8         -1.4193    0.4891   -2.2504 C.ar      1 <0>         0.2265
     11 C9         -1.1704    0.0489   -3.5450 C.ar      1 <0>        -0.1487
     12 C10        -0.5720    0.8995   -4.4558 C.ar      1 <0>        -0.0374
     13 C11        -0.2246    2.1782   -4.0791 C.ar      1 <0>        -0.1492
     14 C12        -0.4668    2.6332   -2.7886 C.ar      1 <0>         0.1597
     15 C13        -1.0744    1.7775   -1.8735 C.ar      1 <0>        -0.1509
     16 N2         -0.0296    3.9513   -2.6519 N.am      1 <0>        -0.6568
     17 C14         0.5043    4.4307   -3.7879 C.2       1 <0>         0.5044
     18 O1          0.9627    5.5410   -3.9559 O.2       1 <0>        -0.4933
     19 C15         0.4270    3.3245   -4.8184 C.3       1 <0>         0.1219
     20 H2          1.4256    3.0443   -5.1536 H         1 <0>         0.1103
     21 O2         -0.3796    3.7283   -5.9268 O.3       1 <0>        -0.5309
     22 H3          2.1609   -1.9119   -0.2305 H         1 <0>         0.0568
     23 H4          1.0438   -1.4906    1.0897 H         1 <0>         0.0546
     24 H5          0.7749   -2.9677    0.1335 H         1 <0>         0.0585
     25 H6          0.5704   -0.0968   -0.8815 H         1 <0>         0.0660
     26 H7          0.3792   -1.5522   -1.8883 H         1 <0>         0.0676
     27 H8         -1.5024   -3.0233   -1.6406 H         1 <0>         0.0649
     28 H9         -1.1631   -3.3218    0.0816 H         1 <0>         0.0697
     29 H10        -3.5394   -3.7769   -0.4237 H         1 <0>         0.0612
     30 H11        -3.3906   -2.3813    0.6706 H         1 <0>         0.0609
     31 H12        -3.7333   -2.2224   -2.3586 H         1 <0>         0.0645
     32 H13        -5.0180   -1.9379   -1.1591 H         1 <0>         0.0683
     33 H14        -3.9438    0.1882   -1.9825 H         1 <0>         0.0699
     34 H15        -3.7809   -0.0409   -0.2223 H         1 <0>         0.0512
     35 H16        -1.4432   -0.9541   -3.8382 H         1 <0>         0.1308
     36 H17        -0.3765    0.5613   -5.4627 H         1 <0>         0.1326
     37 H18        -1.2737    2.1169   -0.8677 H         1 <0>         0.1282
     38 H19        -0.1030    4.4629   -1.8310 H         1 <0>         0.4149
     39 H20        -0.0085    4.4613   -6.4368 H         1 <0>         0.3912
@<TRIPOS>BOND
     1    1    2 1
     2    1   22 1
     3    1   23 1
     4    1   24 1
     5    2    3 1
     6    2   25 1
     7    2   26 1
     8    3    4 1
     9    3    9 1
    10    3    5 1
    11    5    6 1
    12    5   27 1
    13    5   28 1
    14    6    7 1
    15    6   29 1
    16    6   30 1
    17    7    8 1
    18    7   31 1
    19    7   32 1
    20    8    9 1
    21    8   33 1
    22    8   34 1
    23    9   10 1
    24   10   15 ar
    25   10   11 ar
    26   11   12 ar
    27   11   35 1
    28   12   13 ar
    29   12   36 1
    30   13   19 1
    31   13   14 ar
    32   14   15 ar
    33   14   16 1
    34   15   37 1
    35   16   17 am
    36   16   38 1
    37   17   18 2
    38   17   19 1
    39   19   20 1
    40   19   21 1
    41   21   39 1
@<TRIPOS>MOLECULE
ZINC15987488
   26    26     0     0     0
SMALL
USER_CHARGES

@<TRIPOS>ATOM
      1 C1         -0.0173    1.4248    0.0099 C.3       1 <0>         0.0098
      2 O1          0.0021   -0.0041    0.0020 O.3       1 <0>        -0.2963
      3 C2          0.6015   -0.6028   -1.0481 C.2       1 <0>         0.4810
      4 C3          0.6560   -1.9872   -1.1190 C.2       1 <0>        -0.1008
      5 C4          0.0761   -2.7808   -0.0776 C.1       1 <0>         0.2535
      6 N1         -0.3840   -3.4104    0.7486 N.1       1 <0>        -0.4411
      7 N2          1.2622   -2.5927   -2.1811 N.2       1 <0>        -0.3887
      8 C5          1.3133   -3.8933   -2.2476 C.2       1 <0>         0.0999
      9 C6          1.9673   -4.5465   -3.3934 C.ar      1 <0>        -0.0367
     10 C7          2.0193   -5.9416   -3.4713 C.ar      1 <0>        -0.0894
     11 C8          2.6335   -6.5462   -4.5475 C.ar      1 <0>        -0.1165
     12 C9          3.1986   -5.7763   -5.5495 C.ar      1 <0>        -0.1027
     13 C10         3.1523   -4.3954   -5.4805 C.ar      1 <0>        -0.1159
     14 C11         2.5350   -3.7747   -4.4129 C.ar      1 <0>        -0.0057
     15 Cl1         2.4704   -2.0418   -4.3318 Cl        1 <0>        -0.0527
     16 N3          1.1554    0.1553   -2.0429 N.pl3     1 <0>        -0.8327
     17 H1          1.0053    1.8021    0.0021 H         1 <0>         0.0695
     18 H2         -0.5445    1.7859   -0.8732 H         1 <0>         0.0695
     19 H3         -0.5275    1.7763    0.9067 H         1 <0>         0.1206
     20 H4          0.8760   -4.4918   -1.4622 H         1 <0>         0.1059
     21 H5          1.5796   -6.5442   -2.6902 H         1 <0>         0.1351
     22 H6          2.6742   -7.6237   -4.6086 H         1 <0>         0.1316
     23 H7          3.6786   -6.2562   -6.3896 H         1 <0>         0.1322
     24 H8          3.5961   -3.8015   -6.2658 H         1 <0>         0.1341
     25 H9          1.1173    1.1233   -1.9934 H         1 <0>         0.4071
     26 H10         1.5863   -0.2751   -2.7979 H         1 <0>         0.4292
@<TRIPOS>BOND
     1    1    2 1
     2    1   17 1
     3    1   18 1
     4    1   19 1
     5    2    3 1
     6    3    4 2
     7    3   16 1
     8    4    5 1
     9    4    7 1
    10    5    6 3
    11    7    8 2
    12    8    9 1
    13    8   20 1
    14    9   14 ar
    15    9   10 ar
    16   10   11 ar
    17   10   21 1
    18   11   12 ar
    19   11   22 1
    20   12   13 ar
    21   12   23 1
    22   13   14 ar
    23   13   24 1
    24   14   15 1
    25   16   25 1
    26   16   26 1
@<TRIPOS>MOLECULE
ZINC01726325
   39    42     0     0     0
SMALL
USER_CHARGES
benzylBLAHone
@<TRIPOS>ATOM
      1 C1          6.5990    3.5058   -3.3700 C.ar      1 <0>        -0.1141
      2 C2          6.3873    2.1804   -3.0396 C.ar      1 <0>        -0.1212
      3 C3          5.1099    1.6535   -3.0802 C.ar      1 <0>        -0.0974
      4 C4          4.0444    2.4520   -3.4516 C.ar      1 <0>        -0.1133
      5 C5          4.2570    3.7760   -3.7875 C.ar      1 <0>        -0.1055
      6 C6          5.5335    4.3043   -3.7415 C.ar      1 <0>        -0.1229
      7 C7          2.6519    1.8775   -3.4963 C.3       1 <0>         0.1654
      8 N1          2.0100    2.0509   -2.1909 N.am      1 <0>        -0.6145
      9 C8          1.2131    3.2259   -1.8061 C.3       1 <0>         0.1106
     10 C9          1.1372    3.1582   -0.2682 C.3       1 <0>        -0.1026
     11 H1          2.0047    3.6675    0.1514 H         1 <0>         0.1010
     12 C10        -0.1009    3.8148    0.2681 C.3       1 <0>        -0.0577
     13 C11        -1.3350    2.9725    0.1631 C.ar      1 <0>        -0.1594
     14 C12        -2.5790    3.5801    0.1933 C.ar      1 <0>        -0.0719
     15 C13        -3.7286    2.8208    0.0963 C.ar      1 <0>        -0.1725
     16 C14        -3.6432    1.4462   -0.0313 C.ar      1 <0>        -0.0734
     17 C15        -2.4076    0.8331   -0.0607 C.ar      1 <0>        -0.1904
     18 C16        -1.2470    1.5954    0.0169 C.ar      1 <0>         0.2226
     19 N2         -0.0111    0.9658    0.0074 N.pl3     1 <0>        -0.7272
     20 C17         1.2637    1.6595   -0.0011 C.3       1 <0>         0.1389
     21 H2          1.7947    1.4855    0.9348 H         1 <0>         0.1025
     22 C18         2.0799    1.1425   -1.1768 C.2       1 <0>         0.5099
     23 O1          2.6893    0.0941   -1.1972 O.2       1 <0>        -0.5112
     24 H3          7.5969    3.9176   -3.3376 H         1 <0>         0.1226
     25 H4          7.2197    1.5565   -2.7494 H         1 <0>         0.1231
     26 H5          4.9444    0.6180   -2.8220 H         1 <0>         0.1246
     27 H6          3.4251    4.3986   -4.0820 H         1 <0>         0.1205
     28 H7          5.6989    5.3400   -3.9993 H         1 <0>         0.1231
     29 H8          2.7044    0.8158   -3.7372 H         1 <0>         0.0903
     30 H9          2.0698    2.3948   -4.2590 H         1 <0>         0.0892
     31 H10         0.2144    3.1660   -2.2388 H         1 <0>         0.0769
     32 H11         1.7108    4.1427   -2.1220 H         1 <0>         0.0843
     33 H12         0.0634    4.0601    1.3173 H         1 <0>         0.0803
     34 H13        -0.2665    4.7425   -0.2797 H         1 <0>         0.0837
     35 H14        -2.6506    4.6531    0.2928 H         1 <0>         0.1212
     36 H15        -4.6957    3.3011    0.1199 H         1 <0>         0.1195
     37 H16        -4.5428    0.8535   -0.1076 H         1 <0>         0.1220
     38 H17        -2.3408   -0.2402   -0.1602 H         1 <0>         0.1200
     39 H18         0.0021   -0.0041    0.0020 H         1 <0>         0.4030
@<TRIPOS>BOND
     1    1    6 ar
     2    1    2 ar
     3    1   24 1
     4    2    3 ar
     5    2   25 1
     6    3    4 ar
     7    3   26 1
     8    4    5 ar
     9    4    7 1
    10    5    6 ar
    11    5   27 1
    12    6   28 1
    13    7    8 1
    14    7   29 1
    15    7   30 1
    16    8   22 am
    17    8    9 1
    18    9   10 1
    19    9   31 1
    20    9   32 1
    21   10   11 1
    22   10   20 1
    23   10   12 1
    24   12   13 1
    25   12   33 1
    26   12   34 1
    27   13   18 ar
    28   13   14 ar
    29   14   15 ar
    30   14   35 1
    31   15   16 ar
    32   15   36 1
    33   16   17 ar
    34   16   37 1
    35   17   18 ar
    36   17   38 1
    37   18   19 1
    38   19   20 1
    39   19   39 1
    40   20   21 1
    41   20   22 1
    42   22   23 2
@<TRIPOS>MOLECULE
ZINC37103801
   41    44     0     0     0
SMALL
USER_CHARGES

@<TRIPOS>ATOM
      1 C1         -0.0178    1.4648    0.0101 C.3       1 <0>         0.0112
      2 N1          0.0021   -0.0041    0.0020 N.3       1 <0>        -0.5072
      3 C2         -1.3711   -0.5565    0.1460 C.3       1 <0>         0.0628
      4 H1         -2.0935   -0.0349   -0.4818 H         1 <0>         0.0943
      5 C3         -1.6865   -0.4026    1.6518 C.3       1 <0>        -0.1530
      6 C4         -0.3081   -0.3877    2.3448 C.3       1 <0>        -0.1543
      7 C5          0.7149   -0.5340    1.1948 C.3       1 <0>         0.0660
      8 H2          1.6405    0.0054    1.3955 H         1 <0>         0.0977
      9 C6          0.9449   -2.0352    0.9583 C.3       1 <0>        -0.1142
     10 C7         -0.4129   -2.7395    0.8861 C.3       1 <0>         0.1533
     11 C8         -1.2956   -2.0563   -0.1819 C.3       1 <0>        -0.1215
     12 N2         -0.2144   -4.1445    0.5214 N.pl3     1 <0>        -0.7438
     13 C9         -1.1671   -5.1030    0.8844 C.ar      1 <0>         0.1970
     14 C10        -2.3052   -4.7259    1.5854 C.ar      1 <0>        -0.1659
     15 C11        -3.2471   -5.6684    1.9402 C.ar      1 <0>        -0.0876
     16 C12        -3.0660   -7.0067    1.5998 C.ar      1 <0>         0.0436
     17 C13        -1.9216   -7.3759    0.9053 C.ar      1 <0>        -0.1239
     18 C14        -0.9829   -6.4365    0.5405 C.ar      1 <0>        -0.1477
     19 C15        -1.9900   -8.8772    0.7013 C.3       1 <0>        -0.1126
     20 C16        -3.0915   -9.2872    1.7071 C.3       1 <0>         0.0527
     21 O1         -3.8665   -8.0834    1.8384 O.3       1 <0>        -0.3089
     22 H3          1.0047    1.8421    0.0024 H         1 <0>         0.0683
     23 H4         -0.5450    1.8259   -0.8730 H         1 <0>         0.0690
     24 H5         -0.5280    1.8163    0.9069 H         1 <0>         0.0313
     25 H6         -2.2135    0.5337    1.8352 H         1 <0>         0.0667
     26 H7         -2.2788   -1.2474    2.0035 H         1 <0>         0.0741
     27 H8         -0.1573    0.5560    2.8689 H         1 <0>         0.0668
     28 H9         -0.2226   -1.2251    3.0373 H         1 <0>         0.0750
     29 H10         1.4812   -2.1791    0.0203 H         1 <0>         0.0775
     30 H11         1.5277   -2.4493    1.7812 H         1 <0>         0.0719
     31 H12        -0.9024   -2.6839    1.8585 H         1 <0>         0.0822
     32 H13        -2.2966   -2.4867   -0.1555 H         1 <0>         0.0689
     33 H14        -0.8641   -2.1918   -1.1737 H         1 <0>         0.0766
     34 H15        -2.4530   -3.6904    1.8540 H         1 <0>         0.1277
     35 H16        -4.1296   -5.3674    2.4851 H         1 <0>         0.1263
     36 H17        -0.1026   -6.7366   -0.0085 H         1 <0>         0.1220
     37 H18        -2.2855   -9.1184   -0.3198 H         1 <0>         0.0910
     38 H19        -1.0393   -9.3479    0.9515 H         1 <0>         0.0905
     39 H20        -3.7005  -10.0965    1.3041 H         1 <0>         0.1042
     40 H21        -2.6541   -9.5713    2.6642 H         1 <0>         0.0742
     41 H22         0.5775   -4.4103    0.0283 H         1 <0>         0.3983
@<TRIPOS>BOND
     1    1    2 1
     2    1   22 1
     3    1   23 1
     4    1   24 1
     5    2    7 1
     6    2    3 1
     7    3    4 1
     8    3   11 1
     9    3    5 1
    10    5    6 1
    11    5   25 1
    12    5   26 1
    13    6    7 1
    14    6   27 1
    15    6   28 1
    16    7    8 1
    17    7    9 1
    18    9   10 1
    19    9   29 1
    20    9   30 1
    21   10   11 1
    22   10   12 1
    23   10   31 1
    24   11   32 1
    25   11   33 1
    26   12   13 1
    27   12   41 1
    28   13   18 ar
    29   13   14 ar
    30   14   15 ar
    31   14   34 1
    32   15   16 ar
    33   15   35 1
    34   16   21 1
    35   16   17 ar
    36   17   18 ar
    37   17   19 1
    38   18   36 1
    39   19   20 1
    40   19   37 1
    41   19   38 1
    42   20   21 1
    43   20   39 1
    44   20   40 1
@<TRIPOS>MOLECULE
ZINC41506902
   22    23     0     0     0
SMALL
USER_CHARGES

@<TRIPOS>ATOM
      1 C1          0.1540    1.3731    0.6022 C.ar      1 <0>        -0.1314
      2 C2          1.1778    2.0876   -0.0060 C.ar      1 <0>         0.1720
      3 C3          2.2180    1.4111   -0.6297 C.ar      1 <0>        -0.1108
      4 C4          2.2318    0.0290   -0.6437 C.ar      1 <0>        -0.0047
      5 C5          1.2102   -0.6806   -0.0373 C.ar      1 <0>        -0.1167
      6 C6          0.1727   -0.0090    0.5853 C.ar      1 <0>        -0.0044
      7 Cl1        -1.1064   -0.9030    1.3458 Cl        1 <0>        -0.0486
      8 Cl2         3.5317   -0.8174   -1.4232 Cl        1 <0>        -0.0478
      9 N1          1.1611    3.4860    0.0092 N.am      1 <0>        -0.6557
     10 C7          2.3169    4.1727    0.1036 C.2       1 <0>         0.6002
     11 O1          3.3792    3.5802    0.0909 O.2       1 <0>        -0.5091
     12 C8          2.2938    5.6402    0.2222 C.2       1 <0>        -0.0207
     13 C9          3.4435    6.3781    0.3152 C.2       1 <0>        -0.2244
     14 S1          2.8573    7.9487    0.4252 S.3       1 <0>         0.2867
     15 C10         1.2108    7.6297    0.3518 C.2       1 <0>        -0.0202
     16 N2          1.1493    6.3308    0.2397 N.2       1 <0>        -0.4757
     17 H1         -0.6538    1.8967    1.0918 H         1 <0>         0.1452
     18 H2          3.0152    1.9645   -1.1038 H         1 <0>         0.1572
     19 H3          1.2227   -1.7605   -0.0497 H         1 <0>         0.1476
     20 H4          0.3176    3.9616   -0.0481 H         1 <0>         0.4252
     21 H5          4.4681    6.0368    0.3177 H         1 <0>         0.2099
     22 H6          0.3935    8.3349    0.3854 H         1 <0>         0.2262
@<TRIPOS>BOND
     1    1    6 ar
     2    1    2 ar
     3    1   17 1
     4    2    3 ar
     5    2    9 1
     6    3    4 ar
     7    3   18 1
     8    4    5 ar
     9    4    8 1
    10    5    6 ar
    11    5   19 1
    12    6    7 1
    13    9   10 am
    14    9   20 1
    15   10   11 2
    16   10   12 1
    17   12   16 1
    18   12   13 2
    19   13   14 1
    20   13   21 1
    21   14   15 1
    22   15   16 2
    23   15   22 1
@<TRIPOS>MOLECULE
ZINC44814411
   23    23     0     0     0
SMALL
USER_CHARGES

@<TRIPOS>ATOM
      1 C1         -0.1625    1.8352    1.7326 C.3       1 <0>        -0.1466
      2 C2         -0.3811    1.2612    0.3313 C.3       1 <0>        -0.0045
      3 H1          0.3142    0.4388    0.1630 H         1 <0>         0.1464
      4 C3         -0.1488    2.3133   -0.6716 C.1       1 <0>         0.2134
      5 N1          0.0305    3.1253   -1.4456 N.1       1 <0>        -0.3981
      6 C4         -1.7957    0.7556    0.2106 C.2       1 <0>         0.5320
      7 O1         -2.5377    1.2240   -0.6269 O.2       1 <0>        -0.4986
      8 N2         -2.2363   -0.2169    1.0331 N.am      1 <0>        -0.6796
      9 C5         -3.5793   -0.6131    0.9930 C.ar      1 <0>         0.1549
     10 C6         -3.9742   -1.6502    0.1573 C.ar      1 <0>        -0.0058
     11 C7         -5.3001   -2.0393    0.1201 C.ar      1 <0>        -0.0930
     12 C8         -6.2337   -1.3966    0.9139 C.ar      1 <0>        -0.0067
     13 C9         -5.8433   -0.3632    1.7473 C.ar      1 <0>        -0.0930
     14 C10        -4.5178    0.0265    1.7930 C.ar      1 <0>        -0.0072
     15 Cl1        -4.0278    1.3187    2.8436 Cl        1 <0>        -0.0289
     16 Cl2        -7.8982   -1.8872    0.8637 Cl        1 <0>        -0.0339
     17 Cl3        -2.8039   -2.4564   -0.8398 Cl        1 <0>        -0.0284
     18 H2          0.8606    2.2008    1.8199 H         1 <0>         0.0850
     19 H3         -0.8579    2.6575    1.9010 H         1 <0>         0.0732
     20 H4         -0.3346    1.0561    2.4753 H         1 <0>         0.0847
     21 H5         -1.6234   -0.6424    1.6530 H         1 <0>         0.4194
     22 H6         -5.6078   -2.8455   -0.5293 H         1 <0>         0.1576
     23 H7         -6.5742    0.1368    2.3654 H         1 <0>         0.1577
@<TRIPOS>BOND
     1    1    2 1
     2    1   18 1
     3    1   19 1
     4    1   20 1
     5    2    3 1
     6    2    4 1
     7    2    6 1
     8    4    5 3
     9    6    7 2
    10    6    8 am
    11    8    9 1
    12    8   21 1
    13    9   14 ar
    14    9   10 ar
    15   10   11 ar
    16   10   17 1
    17   11   12 ar
    18   11   22 1
    19   12   13 ar
    20   12   16 1
    21   13   14 ar
    22   13   23 1
    23   14   15 1
@<TRIPOS>MOLECULE
ZINC62656540
   43    44     0     0     0
SMALL
USER_CHARGES

@<TRIPOS>ATOM
      1 C1          2.1249    2.1239    0.9141 C.3       1 <0>        -0.1517
      2 C2          1.7112    0.7110    0.4973 C.3       1 <0>         0.1385
      3 H1          0.6849    0.7233    0.1306 H         1 <0>         0.1001
      4 C3          2.6463    0.2054   -0.6064 C.3       1 <0>         0.0497
      5 N1          4.0016    0.0488   -0.0619 N.3       1 <0>        -0.6775
      6 C4          4.0357   -0.9672    0.9986 C.3       1 <0>         0.1157
      7 H2          3.6586   -1.9127    0.6088 H         1 <0>         0.0523
      8 C5          3.1576   -0.5096    2.1681 C.3       1 <0>         0.1013
      9 N2          1.8126   -0.1943    1.6520 N.am      1 <0>        -0.6088
     10 C6          0.7082   -0.7212    2.2169 C.2       1 <0>         0.5267
     11 O1         -0.3907   -0.3804    1.8333 O.2       1 <0>        -0.5360
     12 C7          0.8387   -1.7338    3.3254 C.3       1 <0>        -0.0857
     13 C8         -0.5539   -2.1821    3.7733 C.3       1 <0>        -0.1273
     14 C9          1.6262   -2.9444    2.8201 C.3       1 <0>        -0.1561
     15 C10         1.5764   -1.1031    4.5081 C.3       1 <0>        -0.1587
     16 C11         5.4537   -1.1495    1.4750 C.ar      1 <0>        -0.0927
     17 C12         6.2781   -0.0504    1.6282 C.ar      1 <0>        -0.0902
     18 C13         7.5788   -0.2176    2.0652 C.ar      1 <0>        -0.1230
     19 C14         8.0551   -1.4838    2.3495 C.ar      1 <0>        -0.1151
     20 C15         7.2305   -2.5828    2.1972 C.ar      1 <0>        -0.1210
     21 C16         5.9284   -2.4151    1.7643 C.ar      1 <0>        -0.1115
     22 H3          3.1514    2.1088    1.2804 H         1 <0>         0.0692
     23 H4          2.0554    2.7911    0.0550 H         1 <0>         0.0652
     24 H5          1.4625    2.4783    1.7039 H         1 <0>         0.0527
     25 H6          2.2885   -0.7564   -0.9739 H         1 <0>         0.0366
     26 H7          2.6643    0.9243   -1.4255 H         1 <0>         0.0915
     27 H8          4.6620   -0.1693   -0.7929 H         1 <0>         0.3496
     28 H9          3.0870   -1.3077    2.9071 H         1 <0>         0.1122
     29 H10         3.5913    0.3796    2.6256 H         1 <0>         0.0793
     30 H11        -1.0794   -2.6314    2.9307 H         1 <0>         0.0617
     31 H12        -0.4595   -2.9145    4.5750 H         1 <0>         0.0631
     32 H13        -1.1149   -1.3196    4.1333 H         1 <0>         0.0627
     33 H14         2.4792   -2.6037    2.2332 H         1 <0>         0.0674
     34 H15         1.9797   -3.5283    3.6698 H         1 <0>         0.0717
     35 H16         0.9806   -3.5635    2.1972 H         1 <0>         0.0636
     36 H17         0.9597   -0.3168    4.9434 H         1 <0>         0.0633
     37 H18         1.7766   -1.8662    5.2602 H         1 <0>         0.0711
     38 H19         2.5185   -0.6769    4.1632 H         1 <0>         0.0719
     39 H20         5.9060    0.9388    1.4061 H         1 <0>         0.1316
     40 H21         8.2231    0.6410    2.1842 H         1 <0>         0.1228
     41 H22         9.0715   -1.6145    2.6902 H         1 <0>         0.1217
     42 H23         7.6027   -3.5720    2.4190 H         1 <0>         0.1227
     43 H24         5.2830   -3.2733    1.6488 H         1 <0>         0.1197
@<TRIPOS>BOND
     1    1    2 1
     2    1   22 1
     3    1   23 1
     4    1   24 1
     5    2    3 1
     6    2    9 1
     7    2    4 1
     8    4    5 1
     9    4   25 1
    10    4   26 1
    11    5    6 1
    12    5   27 1
    13    6    7 1
    14    6    8 1
    15    6   16 1
    16    8    9 1
    17    8   28 1
    18    8   29 1
    19    9   10 am
    20   10   11 2
    21   10   12 1
    22   12   13 1
    23   12   14 1
    24   12   15 1
    25   13   30 1
    26   13   31 1
    27   13   32 1
    28   14   33 1
    29   14   34 1
    30   14   35 1
    31   15   36 1
    32   15   37 1
    33   15   38 1
    34   16   21 ar
    35   16   17 ar
    36   17   18 ar
    37   17   39 1
    38   18   19 ar
    39   18   40 1
    40   19   20 ar
    41   19   41 1
    42   20   21 ar
    43   20   42 1
    44   21   43 1
@<TRIPOS>MOLECULE
ZINC20583338
   39    42     0     0     0
SMALL
USER_CHARGES
4-[(1R)-1-(1-adamantyl)ethyl]-1,2,4-triazole-3-thiol
@<TRIPOS>ATOM
      1 C1          4.2378    0.1770   -2.2775 C.3       1 <0>        -0.1708
      2 C2          2.8697   -0.4613   -2.5264 C.3       1 <0>         0.1461
      3 H1          2.4975   -0.2017   -3.5284 H         1 <0>         0.1323
      4 C3          1.8868    0.0029   -1.4498 C.3       1 <0>        -0.0576
      5 C4          0.5677   -0.7573   -1.6015 C.3       1 <0>        -0.1008
      6 C5         -0.4152   -0.2930   -0.5249 C.3       1 <0>        -0.0845
      7 C6         -0.6706    1.2075   -0.6803 C.3       1 <0>        -0.1105
      8 C7          0.6484    1.9677   -0.5286 C.3       1 <0>        -0.0840
      9 C8          1.6314    1.5035   -1.6053 C.3       1 <0>        -0.1008
     10 C9          1.2399    1.6917    0.8552 C.3       1 <0>        -0.1098
     11 C10         1.4953    0.1912    1.0106 C.3       1 <0>        -0.0829
     12 C11         0.1762   -0.5690    0.8589 C.3       1 <0>        -0.1101
     13 C12         2.4783   -0.2731   -0.0660 C.3       1 <0>        -0.1167
     14 N1          2.9952   -1.9201   -2.4768 N.pl3     1 <0>        -0.4624
     15 C13         3.5608   -2.6668   -1.4804 C.2       1 <0>         0.2346
     16 N2          3.4620   -3.9182   -1.8298 N.2       1 <0>        -0.3026
     17 N3          2.8854   -4.0125   -2.9745 N.pl3     1 <0>        -0.4002
     18 C14         2.5771   -2.8160   -3.4185 C.2       1 <0>         0.4510
     19 S1          1.7759   -2.4380   -4.9416 S.2       1 <0>        -0.6295
     20 H2          4.9444   -0.1568   -3.0516 H         1 <0>         0.0691
     21 H3          4.6089   -0.1256   -1.2872 H         1 <0>         0.0717
     22 H4          4.1436    1.2723   -2.3148 H         1 <0>         0.0934
     23 H5          0.1425   -0.5588   -2.5964 H         1 <0>         0.0749
     24 H6          0.7512   -1.8361   -1.4898 H         1 <0>         0.0506
     25 H7         -1.3635   -0.8396   -0.6340 H         1 <0>         0.0709
     26 H8         -1.0959    1.4059   -1.6752 H         1 <0>         0.0649
     27 H9         -1.3773    1.5413    0.0937 H         1 <0>         0.0638
     28 H10         0.4647    3.0465   -0.6403 H         1 <0>         0.0750
     29 H11         2.5798    2.0501   -1.4962 H         1 <0>         0.0707
     30 H12         1.2062    1.7019   -2.6002 H         1 <0>         0.0717
     31 H13         2.1882    2.2383    0.9642 H         1 <0>         0.0636
     32 H14         0.5332    2.0255    1.6293 H         1 <0>         0.0643
     33 H15         1.9206   -0.0072    2.0055 H         1 <0>         0.0724
     34 H16        -0.5305   -0.2352    1.6329 H         1 <0>         0.0644
     35 H17         0.3597   -1.6478    0.9707 H         1 <0>         0.0583
     36 H18         2.6619   -1.3519    0.0457 H         1 <0>         0.0602
     37 H19         3.4267    0.2734    0.0431 H         1 <0>         0.0740
     38 H20         3.9944   -2.4226   -0.6130 H         1 <0>         0.2169
     39 H21         2.7221   -5.0011   -3.4283 H         1 <0>         0.5080
@<TRIPOS>BOND
     1    1    2 1
     2    1   20 1
     3    1   21 1
     4    1   22 1
     5    2    3 1
     6    2    4 1
     7    2   14 1
     8    4    9 1
     9    4   13 1
    10    4    5 1
    11    5    6 1
    12    5   23 1
    13    5   24 1
    14    6   12 1
    15    6    7 1
    16    6   25 1
    17    7    8 1
    18    7   26 1
    19    7   27 1
    20    8    9 1
    21    8   10 1
    22    8   28 1
    23    9   29 1
    24    9   30 1
    25   10   11 1
    26   10   31 1
    27   10   32 1
    28   11   12 1
    29   11   13 1
    30   11   33 1
    31   12   34 1
    32   12   35 1
    33   13   36 1
    34   13   37 1
    35   14   18 1
    36   14   15 1
    37   15   38 1
    38   15   16 2
    39   16   17 1
    40   17   18 1
    41   17   39 1
    42   18   19 2
@<TRIPOS>MOLECULE
ZINC40262019
   34    36     0     0     0
SMALL
USER_CHARGES

@<TRIPOS>ATOM
      1 C1         -0.0184    1.5028    0.0103 C.3       1 <0>        -0.0887
      2 C2          0.0021   -0.0041    0.0020 C.2       1 <0>        -0.1621
      3 C3          0.0089   -0.8403   -1.1379 C.2       1 <0>        -0.2116
      4 C4          0.0287   -2.1088   -0.6906 C.2       1 <0>        -0.0324
      5 O1          0.0343   -2.0852    0.6522 O.3       1 <0>        -0.1711
      6 C5          0.0233   -0.8114    1.0777 C.2       1 <0>        -0.0489
      7 C6          0.0300   -0.3627    2.5164 C.3       1 <0>         0.2451
      8 H1          0.2815    0.6967    2.5654 H         1 <0>         0.1338
      9 C7         -1.3340   -0.5836    3.1179 C.ar      1 <0>        -0.1519
     10 C8         -1.6668   -1.8162    3.6489 C.ar      1 <0>        -0.0671
     11 C9         -2.9124   -2.0224    4.2044 C.ar      1 <0>        -0.1351
     12 C10        -3.8468   -0.9900    4.2342 C.ar      1 <0>         0.1140
     13 C11        -3.5035    0.2413    3.6911 C.ar      1 <0>        -0.1708
     14 C12        -2.2556    0.4479    3.1459 C.ar      1 <0>        -0.0522
     15 C13        -4.7107    1.1463    3.8432 C.3       1 <0>        -0.1070
     16 C14        -5.8337    0.1309    4.1617 C.3       1 <0>         0.0760
     17 H2         -6.5389    0.5479    4.8807 H         1 <0>         0.1182
     18 O2         -5.1119   -0.9716    4.7367 O.3       1 <0>        -0.2985
     19 C15        -6.5561   -0.2972    2.8827 C.3       1 <0>        -0.1722
     20 O3          1.0001   -1.1168    3.2460 O.3       1 <0>        -0.5427
     21 H3          1.0042    1.8801    0.0026 H         1 <0>         0.0714
     22 H4         -0.5455    1.8639   -0.8728 H         1 <0>         0.0698
     23 H5         -0.5286    1.8543    0.9071 H         1 <0>         0.0636
     24 H6         -0.0007   -0.5219   -2.1699 H         1 <0>         0.1496
     25 H7          0.0382   -2.9957   -1.3068 H         1 <0>         0.2046
     26 H8         -0.9479   -2.6219    3.6282 H         1 <0>         0.1303
     27 H9         -3.1641   -2.9881    4.6174 H         1 <0>         0.1318
     28 H10        -1.9981    1.4136    2.7364 H         1 <0>         0.1270
     29 H11        -4.5722    1.8452    4.6681 H         1 <0>         0.0934
     30 H12        -4.9183    1.6781    2.9147 H         1 <0>         0.0938
     31 H13        -5.8438   -0.7626    2.2015 H         1 <0>         0.0621
     32 H14        -7.3415   -1.0112    3.1307 H         1 <0>         0.0697
     33 H15        -6.9977    0.5773    2.4048 H         1 <0>         0.0769
     34 H16         0.8389   -2.0703    3.2452 H         1 <0>         0.3813
@<TRIPOS>BOND
     1    1    2 1
     2    1   21 1
     3    1   22 1
     4    1   23 1
     5    2    6 2
     6    2    3 1
     7    3    4 2
     8    3   24 1
     9    4    5 1
    10    4   25 1
    11    5    6 1
    12    6    7 1
    13    7    8 1
    14    7    9 1
    15    7   20 1
    16    9   14 ar
    17    9   10 ar
    18   10   11 ar
    19   10   26 1
    20   11   12 ar
    21   11   27 1
    22   12   18 1
    23   12   13 ar
    24   13   14 ar
    25   13   15 1
    26   14   28 1
    27   15   16 1
    28   15   29 1
    29   15   30 1
    30   16   17 1
    31   16   18 1
    32   16   19 1
    33   19   31 1
    34   19   32 1
    35   19   33 1
    36   20   34 1
@<TRIPOS>MOLECULE
ZINC44230519
   41    43     0     0     0
SMALL
USER_CHARGES

@<TRIPOS>ATOM
      1 C1          0.0759    0.5866    4.0983 C.3       1 <0>        -0.1491
      2 C2         -0.0986   -0.1378    2.7620 C.3       1 <0>        -0.0865
      3 H1         -1.1073   -0.5459    2.6990 H         1 <0>         0.0770
      4 C3          0.1252    0.8486    1.6141 C.3       1 <0>        -0.1137
      5 C4         -0.0492    0.1241    0.2778 C.3       1 <0>        -0.1168
      6 C5          0.9685   -1.0139    0.1780 C.3       1 <0>        -0.1134
      7 C6          0.7447   -2.0004    1.3260 C.3       1 <0>         0.0817
      8 H2          1.4697   -2.8112    1.2549 H         1 <0>         0.0603
      9 C7          0.9191   -1.2759    2.6622 C.3       1 <0>        -0.1366
     10 O1         -0.5778   -2.5354    1.2433 O.3       1 <0>        -0.3414
     11 C8         -0.7084   -3.8495    1.7892 C.3       1 <0>         0.0656
     12 H3          0.0062   -3.9824    2.6015 H         1 <0>         0.0838
     13 C9         -0.4470   -4.8923    0.6949 C.3       1 <0>         0.0418
     14 O2         -0.4829   -6.1896    1.2911 O.3       1 <0>        -0.3103
     15 C10        -1.5391   -6.4920    2.0901 C.ar      1 <0>         0.1455
     16 C11        -1.7902   -7.8293    2.3809 C.ar      1 <0>        -0.1502
     17 C12        -2.8507   -8.1761    3.1925 C.ar      1 <0>        -0.0766
     18 C13        -3.6673   -7.1925    3.7197 C.ar      1 <0>        -0.1523
     19 C14        -3.4223   -5.8642    3.4315 C.ar      1 <0>        -0.0754
     20 C15        -2.3608   -5.5103    2.6153 C.ar      1 <0>        -0.2034
     21 C16        -2.1315   -4.0503    2.3159 C.3       1 <0>         0.1582
     22 H4         -2.2668   -3.4669    3.2267 H         1 <0>         0.0752
     23 O3         -3.0694   -3.6149    1.3296 O.3       1 <0>        -0.5414
     24 H5          1.0846    0.9947    4.1614 H         1 <0>         0.0529
     25 H6         -0.6491    1.3974    4.1694 H         1 <0>         0.0548
     26 H7         -0.0836   -0.1161    4.9161 H         1 <0>         0.0519
     27 H8         -0.5998    1.6594    1.6852 H         1 <0>         0.0613
     28 H9          1.1340    1.2567    1.6772 H         1 <0>         0.0588
     29 H10        -1.0580   -0.2839    0.2147 H         1 <0>         0.0727
     30 H11         0.1102    0.8269   -0.5400 H         1 <0>         0.0602
     31 H12         0.8442   -1.5301   -0.7740 H         1 <0>         0.0687
     32 H13         1.9772   -0.6059    0.2411 H         1 <0>         0.0748
     33 H14         1.9279   -0.8678    2.7253 H         1 <0>         0.0724
     34 H15         0.7597   -1.9787    3.4801 H         1 <0>         0.0608
     35 H16        -1.2173   -4.8197   -0.0729 H         1 <0>         0.0822
     36 H17         0.5329   -4.7198    0.2499 H         1 <0>         0.1090
     37 H18        -1.1531   -8.5984    1.9697 H         1 <0>         0.1335
     38 H19        -3.0431   -9.2151    3.4157 H         1 <0>         0.1322
     39 H20        -4.4968   -7.4629    4.3562 H         1 <0>         0.1278
     40 H21        -4.0615   -5.0979    3.8445 H         1 <0>         0.1258
     41 H22        -3.9939   -3.7130    1.5957 H         1 <0>         0.3783
@<TRIPOS>BOND
     1    1    2 1
     2    1   24 1
     3    1   25 1
     4    1   26 1
     5    2    3 1
     6    2    9 1
     7    2    4 1
     8    4    5 1
     9    4   27 1
    10    4   28 1
    11    5    6 1
    12    5   29 1
    13    5   30 1
    14    6    7 1
    15    6   31 1
    16    6   32 1
    17    7    8 1
    18    7    9 1
    19    7   10 1
    20    9   33 1
    21    9   34 1
    22   10   11 1
    23   11   12 1
    24   11   21 1
    25   11   13 1
    26   13   14 1
    27   13   35 1
    28   13   36 1
    29   14   15 1
    30   15   20 ar
    31   15   16 ar
    32   16   17 ar
    33   16   37 1
    34   17   18 ar
    35   17   38 1
    36   18   19 ar
    37   18   39 1
    38   19   20 ar
    39   19   40 1
    40   20   21 1
    41   21   22 1
    42   21   23 1
    43   23   41 1
@<TRIPOS>MOLECULE
ZINC55303104
   43    44     0     0     0
SMALL
USER_CHARGES

@<TRIPOS>ATOM
      1 C1          1.1860    1.7369   -1.1056 C.3       1 <0>        -0.1191
      2 C2          1.0740    0.2542   -0.8606 C.ar      1 <0>        -0.0767
      3 C3          0.9600   -0.6162   -1.9285 C.ar      1 <0>        -0.0930
      4 C4          0.8572   -1.9762   -1.7037 C.ar      1 <0>        -0.0757
      5 C5          0.8690   -2.4660   -0.4111 C.ar      1 <0>        -0.1135
      6 C6          0.9839   -1.5957    0.6567 C.ar      1 <0>        -0.0445
      7 C7          1.0910   -0.2360    0.4318 C.ar      1 <0>        -0.0934
      8 C8          1.2215    0.7123    1.5957 C.3       1 <0>        -0.1156
      9 C9          0.9963   -2.1297    2.0659 C.3       1 <0>        -0.1464
     10 C10         0.7560   -3.9487   -0.1661 C.3       1 <0>         0.1621
     11 H1          1.0515   -4.4891   -1.0653 H         1 <0>         0.1211
     12 C11        -0.6911   -4.2984    0.1869 C.3       1 <0>         0.0202
     13 H2         -1.3215   -4.1716   -0.6932 H         1 <0>         0.0797
     14 C12        -0.7646   -5.7518    0.6639 C.3       1 <0>         0.0323
     15 O1         -2.0981   -6.0367    1.0971 O.3       1 <0>        -0.3767
     16 C13        -2.5566   -5.1755    2.1435 C.3       1 <0>         0.0222
     17 C14        -2.4831   -3.7221    1.6664 C.3       1 <0>         0.0190
     18 O2         -1.1501   -3.4361    1.2322 O.3       1 <0>        -0.3597
     19 O3          1.6131   -4.3193    0.9157 O.3       1 <0>        -0.5609
     20 C15         0.7319   -2.9250   -2.8679 C.3       1 <0>        -0.1227
     21 C16         0.9472   -0.0822   -3.3377 C.3       1 <0>        -0.1186
     22 H3          2.2361    2.0096   -1.2103 H         1 <0>         0.0699
     23 H4          0.6506    1.9957   -2.0191 H         1 <0>         0.0694
     24 H5          0.7522    2.2779   -0.2646 H         1 <0>         0.0670
     25 H6          0.2298    1.0258    1.9220 H         1 <0>         0.0677
     26 H7          1.7327    0.2107    2.4175 H         1 <0>         0.0680
     27 H8          1.7964    1.5863    1.2896 H         1 <0>         0.0664
     28 H9          1.9848   -2.5276    2.2951 H         1 <0>         0.0733
     29 H10         0.7585   -1.3248    2.7615 H         1 <0>         0.0661
     30 H11         0.2545   -2.9227    2.1605 H         1 <0>         0.1023
     31 H12        -0.4976   -6.4183   -0.1561 H         1 <0>         0.1074
     32 H13        -0.0729   -5.8983    1.4936 H         1 <0>         0.0691
     33 H14        -3.5875   -5.4247    2.3949 H         1 <0>         0.1060
     34 H15        -1.9252   -5.3026    3.0229 H         1 <0>         0.0621
     35 H16        -3.1747   -3.5756    0.8368 H         1 <0>         0.0623
     36 H17        -2.7500   -3.0555    2.4865 H         1 <0>         0.1069
     37 H18         1.2696   -4.0833    1.7882 H         1 <0>         0.3813
     38 H19         1.7251   -3.2379   -3.1901 H         1 <0>         0.0733
     39 H20         0.1564   -3.7993   -2.5638 H         1 <0>         0.0628
     40 H21         0.2237   -2.4240   -3.6918 H         1 <0>         0.0732
     41 H22         1.9675   -0.0372   -3.7184 H         1 <0>         0.0693
     42 H23         0.3519   -0.7407   -3.9703 H         1 <0>         0.0680
     43 H24         0.5127    0.9175   -3.3435 H         1 <0>         0.0683
@<TRIPOS>BOND
     1    1    2 1
     2    1   22 1
     3    1   23 1
     4    1   24 1
     5    2    7 ar
     6    2    3 ar
     7    3    4 ar
     8    3   21 1
     9    4    5 ar
    10    4   20 1
    11    5    6 ar
    12    5   10 1
    13    6    7 ar
    14    6    9 1
    15    7    8 1
    16    8   25 1
    17    8   26 1
    18    8   27 1
    19    9   28 1
    20    9   29 1
    21    9   30 1
    22   10   11 1
    23   10   12 1
    24   10   19 1
    25   12   13 1
    26   12   18 1
    27   12   14 1
    28   14   15 1
    29   14   31 1
    30   14   32 1
    31   15   16 1
    32   16   17 1
    33   16   33 1
    34   16   34 1
    35   17   18 1
    36   17   35 1
    37   17   36 1
    38   19   37 1
    39   20   38 1
    40   20   39 1
    41   20   40 1
    42   21   41 1
    43   21   42 1
    44   21   43 1
@<TRIPOS>MOLECULE
ZINC62791510
   32    33     0     0     0
SMALL
USER_CHARGES

@<TRIPOS>ATOM
      1 C1         -0.0169    1.3935    0.0097 C.ar      1 <0>        -0.0586
      2 C2          1.1669    2.0970    0.0022 C.ar      1 <0>        -0.1146
      3 C3          2.3812    1.4187   -0.0131 C.ar      1 <0>         0.2144
      4 C4          2.4044    0.0259   -0.0208 C.ar      1 <0>        -0.0484
      5 C5          1.2241   -0.6836   -0.0133 C.ar      1 <0>        -0.0592
      6 C6          0.0021   -0.0041    0.0020 C.ar      1 <0>        -0.0194
      7 C7         -1.2273   -0.7384    0.0103 C.1       1 <0>         0.2504
      8 N1         -2.2025   -1.3210    0.0168 N.1       1 <0>        -0.4040
      9 Cl1         3.9224   -0.8161   -0.0404 Cl        1 <0>        -0.0480
     10 N2          3.5763    2.1335   -0.0211 N.pl3     1 <0>        -0.6746
     11 C8          4.2033    2.5294   -1.2895 C.3       1 <0>         0.1449
     12 C9          4.4553    4.0402   -1.2645 C.3       1 <0>        -0.1369
     13 C10         5.2732    4.3964   -0.0210 C.3       1 <0>        -0.1074
     14 C11         4.4859    4.0172    1.2353 C.3       1 <0>        -0.1039
     15 H1          3.5322    4.5449    1.2401 H         1 <0>         0.0797
     16 C12         4.2310    2.5114    1.2388 C.3       1 <0>         0.1538
     17 C13         5.2899    4.4044    2.4781 C.3       1 <0>         0.0807
     18 O1          5.4272    5.8257    2.5329 O.3       1 <0>        -0.5722
     19 H2         -0.9591    1.9211    0.0260 H         1 <0>         0.1410
     20 H3          1.1524    3.1769    0.0078 H         1 <0>         0.1433
     21 H4          1.2423   -1.7635   -0.0196 H         1 <0>         0.1441
     22 H5          5.1502    2.0028   -1.4091 H         1 <0>         0.0565
     23 H6          3.5389    2.2834   -2.1179 H         1 <0>         0.0704
     24 H7          5.0066    4.3319   -2.1585 H         1 <0>         0.0708
     25 H8          3.5019    4.5677   -1.2363 H         1 <0>         0.0648
     26 H9          6.2160    3.8496   -0.0376 H         1 <0>         0.0600
     27 H10         5.4750    5.4675   -0.0137 H         1 <0>         0.0695
     28 H11         3.5850    2.2536    2.0780 H         1 <0>         0.0713
     29 H12         5.1802    1.9834    1.3300 H         1 <0>         0.0575
     30 H13         4.7705    4.0549    3.3704 H         1 <0>         0.0459
     31 H14         6.2775    3.9457    2.4294 H         1 <0>         0.0468
     32 H15         5.9273    6.1434    3.2971 H         1 <0>         0.3810
@<TRIPOS>BOND
     1    1    6 ar
     2    1    2 ar
     3    1   19 1
     4    2    3 ar
     5    2   20 1
     6    3    4 ar
     7    3   10 1
     8    4    5 ar
     9    4    9 1
    10    5    6 ar
    11    5   21 1
    12    6    7 1
    13    7    8 3
    14   10   16 1
    15   10   11 1
    16   11   12 1
    17   11   22 1
    18   11   23 1
    19   12   13 1
    20   12   24 1
    21   12   25 1
    22   13   14 1
    23   13   26 1
    24   13   27 1
    25   14   15 1
    26   14   16 1
    27   14   17 1
    28   16   28 1
    29   16   29 1
    30   17   18 1
    31   17   30 1
    32   17   31 1
    33   18   32 1
@<TRIPOS>MOLECULE
ZINC04698138
   41    44     0     0     0
SMALL
USER_CHARGES
2-(1-adamantylmethyleneaminoimino)-5-methyl-thiazolidin-4-one
@<TRIPOS>ATOM
      1 C1          3.6419   -1.2910    5.9349 C.3       1 <0>        -0.1290
      2 C2          2.9122   -0.4819    4.8608 C.3       1 <0>        -0.0908
      3 H1          1.8645   -0.7750    4.7924 H         1 <0>         0.1550
      4 C3          3.0512    1.0117    5.1070 C.2       1 <0>         0.5320
      5 O1          2.6116    1.5440    6.1039 O.2       1 <0>        -0.4759
      6 N1          3.6764    1.6949    4.1635 N.am      1 <0>        -0.6516
      7 C4          4.1735    1.0960    3.0253 C.2       1 <0>         0.4160
      8 N2          4.8090    1.6607    2.0221 N.2       1 <0>        -0.3606
      9 N3          5.2438    0.8825    0.9413 N.2       1 <0>        -0.3503
     10 C5          5.8691    1.4381   -0.0457 C.2       1 <0>         0.1816
     11 C6          6.0125    2.9374   -0.0987 C.3       1 <0>        -0.0563
     12 C7          6.7056    3.3377   -1.4026 C.3       1 <0>        -0.1046
     13 C8          6.8512    4.8598   -1.4563 C.3       1 <0>        -0.0844
     14 C9          7.6887    5.3343   -0.2671 C.3       1 <0>        -0.1094
     15 C10         6.9955    4.9340    1.0369 C.3       1 <0>        -0.0836
     16 C11         6.8500    3.4119    1.0906 C.3       1 <0>        -0.0985
     17 C12         5.6105    5.5813    1.0978 C.3       1 <0>        -0.1059
     18 C13         4.7731    5.1067   -0.0915 C.3       1 <0>        -0.0833
     19 C14         5.4662    5.5071   -1.3954 C.3       1 <0>        -0.1094
     20 C15         4.6275    3.5846   -0.0377 C.3       1 <0>        -0.0987
     21 S1          3.7512   -0.6273    3.2336 S.3       1 <0>        -0.1151
     22 H2          3.2205   -1.0595    6.9131 H         1 <0>         0.0866
     23 H3          3.5239   -2.3552    5.7310 H         1 <0>         0.0858
     24 H4          4.7013   -1.0346    5.9258 H         1 <0>         0.0721
     25 H5          3.7892    2.6517    4.2758 H         1 <0>         0.4183
     26 H6          6.2883    0.8275   -0.8317 H         1 <0>         0.1746
     27 H7          7.6923    2.8766   -1.4460 H         1 <0>         0.0670
     28 H8          6.1090    2.9996   -2.2499 H         1 <0>         0.0666
     29 H9          7.3450    5.1450   -2.3853 H         1 <0>         0.0713
     30 H10         7.7924    6.4187   -0.3053 H         1 <0>         0.0616
     31 H11         8.6754    4.8732   -0.3105 H         1 <0>         0.0617
     32 H12         7.5922    5.2721    1.8841 H         1 <0>         0.0688
     33 H13         6.3562    3.1267    2.0196 H         1 <0>         0.0814
     34 H14         7.8367    2.9508    1.0472 H         1 <0>         0.0577
     35 H15         5.1168    5.2961    2.0267 H         1 <0>         0.0600
     36 H16         5.7143    6.6656    1.0595 H         1 <0>         0.0606
     37 H17         3.7864    5.5679   -0.0481 H         1 <0>         0.0684
     38 H18         5.5699    6.5914   -1.4337 H         1 <0>         0.0618
     39 H19         4.8696    5.1690   -2.2427 H         1 <0>         0.0614
     40 H20         4.0309    3.2466   -0.8850 H         1 <0>         0.0569
     41 H21         4.1337    3.2994    0.8912 H         1 <0>         0.0800
@<TRIPOS>BOND
     1    1    2 1
     2    1   22 1
     3    1   23 1
     4    1   24 1
     5    2    3 1
     6    2   21 1
     7    2    4 1
     8    4    5 2
     9    4    6 am
    10    6    7 1
    11    6   25 1
    12    7    8 2
    13    7   21 1
    14    8    9 1
    15    9   10 2
    16   10   11 1
    17   10   26 1
    18   11   16 1
    19   11   20 1
    20   11   12 1
    21   12   13 1
    22   12   27 1
    23   12   28 1
    24   13   19 1
    25   13   14 1
    26   13   29 1
    27   14   15 1
    28   14   30 1
    29   14   31 1
    30   15   16 1
    31   15   17 1
    32   15   32 1
    33   16   33 1
    34   16   34 1
    35   17   18 1
    36   17   35 1
    37   17   36 1
    38   18   19 1
    39   18   20 1
    40   18   37 1
    41   19   38 1
    42   19   39 1
    43   20   40 1
    44   20   41 1
@<TRIPOS>MOLECULE
ZINC32780809
   31    33     0     0     0
SMALL
USER_CHARGES
4-(5-chloro-2-fluoro-benzoyl)-1,3-dihydroquinoxalin-2-one
@<TRIPOS>ATOM
      1 C1          3.3373   -2.3222    0.6633 C.ar      1 <0>        -0.0959
      2 C2          2.9435   -1.6489   -0.4788 C.ar      1 <0>        -0.1196
      3 C3          1.8642   -0.7843   -0.4393 C.ar      1 <0>        -0.0867
      4 C4          1.1765   -0.5990    0.7441 C.ar      1 <0>         0.1054
      5 C5          1.5769   -1.2714    1.9029 C.ar      1 <0>         0.1381
      6 C6          2.6582   -2.1366    1.8534 C.ar      1 <0>        -0.1339
      7 N1          0.8790   -1.0657    3.0980 N.am      1 <0>        -0.6681
      8 C7         -0.3220   -0.4572    3.0976 C.2       1 <0>         0.5139
      9 O1         -0.8889   -0.2499    4.1497 O.2       1 <0>        -0.5115
     10 C8         -0.9705   -0.0302    1.8057 C.3       1 <0>         0.0809
     11 N2          0.0780    0.2704    0.8193 N.am      1 <0>        -0.5528
     12 C9         -0.0162    1.3436    0.0094 C.2       1 <0>         0.5710
     13 O2          0.9088    1.6347   -0.7240 O.2       1 <0>        -0.4858
     14 C10        -1.2452    2.1622    0.0085 C.ar      1 <0>        -0.1642
     15 C11        -2.4978    1.5476    0.0712 C.ar      1 <0>        -0.0563
     16 C12        -3.6418    2.3187    0.0753 C.ar      1 <0>        -0.0530
     17 C13        -3.5517    3.6997    0.0067 C.ar      1 <0>        -0.0502
     18 C14        -2.3165    4.3158   -0.0614 C.ar      1 <0>        -0.1426
     19 C15        -1.1607    3.5562   -0.0611 C.ar      1 <0>         0.1643
     20 F1          0.0464    4.1593   -0.1272 F         1 <0>        -0.1126
     21 Cl1        -5.1991    1.5562    0.1600 Cl        1 <0>        -0.0444
     22 H1          4.1797   -2.9970    0.6253 H         1 <0>         0.1332
     23 H2          3.4802   -1.7982   -1.4040 H         1 <0>         0.1334
     24 H3          1.5572   -0.2591   -1.3317 H         1 <0>         0.1440
     25 H4          2.9701   -2.6645    2.7424 H         1 <0>         0.1358
     26 H5          1.3108   -1.4025    4.0520 H         1 <0>         0.4432
     27 H6         -1.6104   -0.8425    1.4306 H         1 <0>         0.1171
     28 H7         -1.5822    0.8670    1.9815 H         1 <0>         0.1333
     29 H8         -2.5705    0.4712    0.1203 H         1 <0>         0.1512
     30 H9         -4.4511    4.2975    0.0061 H         1 <0>         0.1544
     31 H10        -2.2537    5.3926   -0.1154 H         1 <0>         0.1584
@<TRIPOS>BOND
     1    1    6 ar
     2    1    2 ar
     3    1   22 1
     4    2    3 ar
     5    2   23 1
     6    3    4 ar
     7    3   24 1
     8    4   11 1
     9    4    5 ar
    10    5    6 ar
    11    5    7 1
    12    6   25 1
    13    7    8 am
    14    7   26 1
    15    8    9 2
    16    8   10 1
    17   10   11 1
    18   10   27 1
    19   10   28 1
    20   11   12 am
    21   12   13 2
    22   12   14 1
    23   14   19 ar
    24   14   15 ar
    25   15   16 ar
    26   15   29 1
    27   16   17 ar
    28   16   21 1
    29   17   18 ar
    30   17   30 1
    31   18   19 ar
    32   18   31 1
    33   19   20 1
@<TRIPOS>MOLECULE
ZINC44764722
   31    32     0     0     0
SMALL
USER_CHARGES

@<TRIPOS>ATOM
      1 C1          0.0647    1.2434   -0.6203 C.ar      1 <0>        -0.0792
      2 C2          1.2503    1.9528   -0.6182 C.ar      1 <0>        -0.1074
      3 C3          2.3814    1.4103   -0.0241 C.ar      1 <0>         0.1627
      4 C4          2.3180    0.1542    0.5674 C.ar      1 <0>        -0.0572
      5 C5          1.1295   -0.5508    0.5624 C.ar      1 <0>        -0.0782
      6 C6          0.0037   -0.0068   -0.0310 C.ar      1 <0>        -0.0410
      7 Cl1        -1.4881   -0.8947   -0.0352 Cl        1 <0>        -0.0519
      8 Cl2         3.7302   -0.5285    1.3111 Cl        1 <0>        -0.0491
      9 N1          3.5843    2.1271   -0.0212 N.am      1 <0>        -0.6629
     10 C7          3.5680    3.4714   -0.1160 C.2       1 <0>         0.5356
     11 O1          2.5117    4.0675   -0.1029 O.2       1 <0>        -0.4855
     12 C8          4.8620    4.2339   -0.2383 C.3       1 <0>         0.0264
     13 C9          5.7308    3.9702    0.9954 C.3       1 <0>        -0.1477
     14 C10         7.0076    4.8094    0.8997 C.3       1 <0>         0.0591
     15 O2          6.6605    6.1910    0.7863 O.3       1 <0>        -0.3704
     16 C11         5.8879    6.5052   -0.3741 C.3       1 <0>         0.0560
     17 C12         4.5662    5.7341   -0.3296 C.3       1 <0>        -0.1320
     18 C13         5.5776    3.7986   -1.4488 C.1       1 <0>         0.1959
     19 N2          6.1298    3.4627   -2.3830 N.1       1 <0>        -0.3833
     20 H1         -0.8166    1.6673   -1.0785 H         1 <0>         0.1473
     21 H2          1.2970    2.9285   -1.0788 H         1 <0>         0.1642
     22 H3          1.0792   -1.5269    1.0218 H         1 <0>         0.1511
     23 H4          4.4294    1.6561    0.0492 H         1 <0>         0.4163
     24 H5          5.1799    4.2463    1.8946 H         1 <0>         0.1076
     25 H6          5.9922    2.9128    1.0375 H         1 <0>         0.0895
     26 H7          7.6099    4.6583    1.7955 H         1 <0>         0.1119
     27 H8          7.5779    4.5047    0.0223 H         1 <0>         0.0542
     28 H9          5.6837    7.5757   -0.3959 H         1 <0>         0.1123
     29 H10         6.4437    6.2227   -1.2682 H         1 <0>         0.0524
     30 H11         3.9947    5.9382   -1.2350 H         1 <0>         0.0951
     31 H12         3.9918    6.0458    0.5428 H         1 <0>         0.1084
@<TRIPOS>BOND
     1    1    6 ar
     2    1    2 ar
     3    1   20 1
     4    2    3 ar
     5    2   21 1
     6    3    4 ar
     7    3    9 1
     8    4    5 ar
     9    4    8 1
    10    5    6 ar
    11    5   22 1
    12    6    7 1
    13    9   10 am
    14    9   23 1
    15   10   11 2
    16   10   12 1
    17   12   17 1
    18   12   13 1
    19   12   18 1
    20   13   14 1
    21   13   24 1
    22   13   25 1
    23   14   15 1
    24   14   26 1
    25   14   27 1
    26   15   16 1
    27   16   17 1
    28   16   28 1
    29   16   29 1
    30   17   30 1
    31   17   31 1
    32   18   19 3
@<TRIPOS>MOLECULE
ZINC59895761
   27    29     0     0     0
SMALL
USER_CHARGES

@<TRIPOS>ATOM
      1 C1         -0.0050    1.4003   -0.0073 C.ar      1 <0>        -0.1643
      2 C2          1.1719    2.0940   -0.0227 C.ar      1 <0>        -0.0552
      3 C3          2.3740    1.3625   -0.0359 C.ar      1 <0>        -0.0762
      4 C4          3.6220    2.0087   -0.0515 C.ar      1 <0>        -0.0409
      5 C5          4.7681    1.2716   -0.0636 C.ar      1 <0>        -0.0725
      6 C6          4.7246   -0.1197   -0.0612 C.ar      1 <0>        -0.1191
      7 C7          3.5208   -0.7888   -0.0465 C.ar      1 <0>         0.1800
      8 C8          2.3157   -0.0527   -0.0327 C.ar      1 <0>         0.1193
      9 N1          1.1318   -0.6702   -0.0173 N.ar      1 <0>        -0.4715
     10 C9          0.0093    0.0077   -0.0050 C.ar      1 <0>         0.1352
     11 N2          3.4922   -2.1854   -0.0447 N.am      1 <0>        -0.6377
     12 C10         4.5427   -2.8803    0.4348 C.2       1 <0>         0.5968
     13 O1          5.4720   -2.2946    0.9574 O.2       1 <0>        -0.5117
     14 C11         4.5657   -4.3485    0.3259 C.2       1 <0>        -0.0191
     15 C12         5.6098   -5.0946    0.8037 C.2       1 <0>        -0.2250
     16 S1          5.1352   -6.6622    0.4296 S.3       1 <0>         0.2828
     17 C13         3.6619   -6.3320   -0.3042 C.2       1 <0>        -0.0194
     18 N3          3.5660   -5.0319   -0.2403 N.2       1 <0>        -0.4733
     19 Cl1         3.7033    3.7428   -0.0560 Cl        1 <0>        -0.0575
     20 H1         -0.9453    1.9312    0.0076 H         1 <0>         0.1441
     21 H2          1.1794    3.1740   -0.0251 H         1 <0>         0.1464
     22 H3          5.7239    1.7742   -0.0756 H         1 <0>         0.1445
     23 H4          5.6468   -0.6818   -0.0714 H         1 <0>         0.1628
     24 H5         -0.9284   -0.5279    0.0077 H         1 <0>         0.1654
     25 H6          2.7162   -2.6550   -0.3885 H         1 <0>         0.4304
     26 H7          6.5108   -4.7600    1.2962 H         1 <0>         0.2098
     27 H8          2.9564   -7.0321   -0.7267 H         1 <0>         0.2259
@<TRIPOS>BOND
     1    1   10 ar
     2    1    2 ar
     3    1   20 1
     4    2    3 ar
     5    2   21 1
     6    3    8 ar
     7    3    4 ar
     8    4    5 ar
     9    4   19 1
    10    5    6 ar
    11    5   22 1
    12    6    7 ar
    13    6   23 1
    14    7    8 ar
    15    7   11 1
    16    8    9 ar
    17    9   10 ar
    18   10   24 1
    19   11   12 am
    20   11   25 1
    21   12   13 2
    22   12   14 1
    23   14   18 1
    24   14   15 2
    25   15   16 1
    26   15   26 1
    27   16   17 1
    28   17   18 2
    29   17   27 1
@<TRIPOS>MOLECULE
ZINC63818714
   37    40     0     0     0
SMALL
USER_CHARGES

@<TRIPOS>ATOM
      1 C1          0.4711    1.4399   -0.0280 C.3       1 <0>         0.0773
      2 N1          0.4392   -0.0248   -0.0255 N.pl3     1 <0>        -0.4880
      3 C2          0.5443   -0.8138   -1.1350 C.2       1 <0>         0.0548
      4 C3          0.4779   -2.1106   -0.7827 C.2       1 <0>        -0.1896
      5 C4          0.3176   -2.1513    0.6678 C.ar      1 <0>        -0.0546
      6 C5          0.3045   -0.8120    1.0974 C.ar      1 <0>         0.0858
      7 C6          0.1684   -0.5283    2.4512 C.ar      1 <0>        -0.0950
      8 C7          0.0503   -1.5532    3.3686 C.ar      1 <0>        -0.1119
      9 C8          0.0648   -2.8748    2.9621 C.ar      1 <0>        -0.1049
     10 C9          0.1918   -3.1912    1.6111 C.ar      1 <0>        -0.0954
     11 C10         0.2093   -4.5984    1.1746 C.2       1 <0>         0.5639
     12 O1          0.3328   -4.8677   -0.0050 O.2       1 <0>        -0.5094
     13 N2          0.0884   -5.5871    2.0825 N.am      1 <0>        -0.6841
     14 C11        -0.0010   -6.9180    1.6598 C.2       1 <0>         0.1366
     15 C12         0.8989   -7.8020    2.1245 C.2       1 <0>        -0.1254
     16 C13         0.7793   -9.2418    1.7214 C.3       1 <0>         0.0724
     17 H1          0.1801   -9.7817    2.4546 H         1 <0>         0.1439
     18 C14         0.0964   -9.2855    0.3675 C.2       1 <0>        -0.0882
     19 C15         0.8545  -10.0951   -0.3919 C.2       1 <0>        -0.1747
     20 C16         2.0334  -10.4292    0.3124 C.2       1 <0>         0.1412
     21 N3          2.0461   -9.9300    1.5170 N.2       1 <0>        -0.4716
     22 C17        -1.0102   -8.4716    0.0531 C.2       1 <0>        -0.0953
     23 C18        -1.0740   -7.2885    0.7352 C.2       1 <0>        -0.0810
     24 H2          1.5009    1.7810    0.0785 H         1 <0>         0.0710
     25 H3          0.0608    1.8107   -0.9673 H         1 <0>         0.0854
     26 H4         -0.1245    1.8177    0.8030 H         1 <0>         0.0811
     27 H5          0.6625   -0.4508   -2.1453 H         1 <0>         0.1726
     28 H6          0.5323   -2.9604   -1.4470 H         1 <0>         0.1578
     29 H7          0.1554    0.4981    2.7869 H         1 <0>         0.1243
     30 H8         -0.0545   -1.3196    4.4178 H         1 <0>         0.1339
     31 H9         -0.0284   -3.6640    3.6935 H         1 <0>         0.1264
     32 H10         0.0634   -5.3761    3.0289 H         1 <0>         0.4084
     33 H11         1.6962   -7.4803    2.7780 H         1 <0>         0.1370
     34 H12         0.6021  -10.4372   -1.3847 H         1 <0>         0.1467
     35 H13         2.8311  -11.0300   -0.0988 H         1 <0>         0.1733
     36 H14        -1.7562   -8.7629   -0.6715 H         1 <0>         0.1455
     37 H15        -1.9136   -6.6250    0.5898 H         1 <0>         0.1297
@<TRIPOS>BOND
     1    1    2 1
     2    1   24 1
     3    1   25 1
     4    1   26 1
     5    2    6 1
     6    2    3 1
     7    3    4 2
     8    3   27 1
     9    4    5 1
    10    4   28 1
    11    5   10 ar
    12    5    6 ar
    13    6    7 ar
    14    7    8 ar
    15    7   29 1
    16    8    9 ar
    17    8   30 1
    18    9   10 ar
    19    9   31 1
    20   10   11 1
    21   11   12 2
    22   11   13 am
    23   13   14 1
    24   13   32 1
    25   14   23 1
    26   14   15 2
    27   15   16 1
    28   15   33 1
    29   16   17 1
    30   16   21 1
    31   16   18 1
    32   18   19 2
    33   18   22 1
    34   19   20 1
    35   19   34 1
    36   20   21 2
    37   20   35 1
    38   22   23 2
    39   22   36 1
    40   23   37 1
@<TRIPOS>MOLECULE
ZINC05863745
   45    47     0     0     0
SMALL
USER_CHARGES
5-(5-chloro-2-hydroxy-benzoyl)-2-oxo-1-(2,4,6-trimethylphenyl)-pyridine-3-carbonitrile
@<TRIPOS>ATOM
      1 C1          0.0612    9.5330    0.1962 C.3       1 <0>        -0.1213
      2 C2          0.0426    8.0266    0.1565 C.ar      1 <0>        -0.0499
      3 C3          0.0392    7.3684   -1.0596 C.ar      1 <0>        -0.1211
      4 C4          0.0218    5.9880   -1.0994 C.ar      1 <0>        -0.0431
      5 C5          0.0080    5.2609    0.0838 C.ar      1 <0>         0.0640
      6 C6          0.0065    5.9250    1.3034 C.ar      1 <0>        -0.0445
      7 C7          0.0284    7.3055    1.3364 C.ar      1 <0>        -0.1214
      8 C8         -0.0142    5.1400    2.5897 C.3       1 <0>        -0.1223
      9 N1         -0.0102    3.8613    0.0469 N.am      1 <0>        -0.4294
     10 C9          1.1531    3.1870    0.0338 C.2       1 <0>         0.2268
     11 C10         1.1878    1.8055   -0.0024 C.2       1 <0>        -0.2721
     12 C11        -0.0125    1.0663   -0.0270 C.2       1 <0>         0.0686
     13 C12        -1.2197    1.7529   -0.0195 C.2       1 <0>        -0.1458
     14 C13        -1.1922    3.2169    0.0249 C.2       1 <0>         0.5382
     15 O1         -2.2339    3.8485    0.0374 O.2       1 <0>        -0.4927
     16 C14        -2.4642    1.0451   -0.0496 C.1       1 <0>         0.2699
     17 N2         -3.4514    0.4836   -0.0735 N.1       1 <0>        -0.3984
     18 C15         2.4843    1.1028   -0.0157 C.2       1 <0>         0.4624
     19 O2          3.2246    1.2105   -0.9749 O.2       1 <0>        -0.4095
     20 C16         2.8833    0.2695    1.1339 C.ar      1 <0>        -0.1844
     21 C17         1.9981    0.0680    2.1969 C.ar      1 <0>        -0.0473
     22 C18         2.3758   -0.7161    3.2660 C.ar      1 <0>        -0.0593
     23 C19         3.6343   -1.2979    3.2965 C.ar      1 <0>        -0.0570
     24 C20         4.5196   -1.1023    2.2553 C.ar      1 <0>        -0.1453
     25 C21         4.1547   -0.3205    1.1695 C.ar      1 <0>         0.1780
     26 O3          5.0241   -0.1278    0.1460 O.3       1 <0>        -0.4762
     27 Cl1         1.2738   -0.9708    4.5830 Cl        1 <0>        -0.0540
     28 C22         0.0182    5.2715   -2.4251 C.3       1 <0>        -0.1243
     29 H1         -0.9619    9.9090    0.2016 H         1 <0>         0.0779
     30 H2          0.5756    9.8664    1.0974 H         1 <0>         0.0719
     31 H3          0.5833    9.9131   -0.6819 H         1 <0>         0.0720
     32 H4          0.0500    7.9344   -1.9794 H         1 <0>         0.1347
     33 H5          0.0307    7.8225    2.2846 H         1 <0>         0.1346
     34 H6          1.0083    4.9374    2.9082 H         1 <0>         0.0795
     35 H7         -0.5270    5.7170    3.3592 H         1 <0>         0.0795
     36 H8         -0.5390    4.1977    2.4318 H         1 <0>         0.0638
     37 H9          2.0821    3.7375    0.0523 H         1 <0>         0.1765
     38 H10         0.0064   -0.0132   -0.0556 H         1 <0>         0.1559
     39 H11         1.0188    0.5230    2.1790 H         1 <0>         0.1451
     40 H12         3.9236   -1.9073    4.1399 H         1 <0>         0.1456
     41 H13         5.4980   -1.5585    2.2867 H         1 <0>         0.1486
     42 H14         5.5968    0.6436    0.2563 H         1 <0>         0.4004
     43 H15        -1.0103    5.1116   -2.7489 H         1 <0>         0.0806
     44 H16         0.5425    5.8753   -3.1658 H         1 <0>         0.0797
     45 H17         0.5196    4.3095   -2.3196 H         1 <0>         0.0648
@<TRIPOS>BOND
     1    1    2 1
     2    1   29 1
     3    1   30 1
     4    1   31 1
     5    2    7 ar
     6    2    3 ar
     7    3    4 ar
     8    3   32 1
     9    4    5 ar
    10    4   28 1
    11    5    6 ar
    12    5    9 1
    13    6    7 ar
    14    6    8 1
    15    7   33 1
    16    8   34 1
    17    8   35 1
    18    8   36 1
    19    9   14 am
    20    9   10 1
    21   10   11 2
    22   10   37 1
    23   11   12 1
    24   11   18 1
    25   12   13 2
    26   12   38 1
    27   13   14 1
    28   13   16 1
    29   14   15 2
    30   16   17 3
    31   18   19 2
    32   18   20 1
    33   20   25 ar
    34   20   21 ar
    35   21   22 ar
    36   21   39 1
    37   22   23 ar
    38   22   27 1
    39   23   24 ar
    40   23   40 1
    41   24   25 ar
    42   24   41 1
    43   25   26 1
    44   26   42 1
    45   28   43 1
    46   28   44 1
    47   28   45 1
@<TRIPOS>MOLECULE
ZINC18200327
   44    48     0     0     0
SMALL
USER_CHARGES
(6R,9S)-6-(2-thienyl)-9-[4-(trifluoromethyl)phenyl]-5,6,7,9-tetrahydro-4H-[1,2,4]triazolo[5,1-b]quinazolin-8-one
@<TRIPOS>ATOM
      1 C1          0.0021   -0.0041    0.0020 C.2       1 <0>        -0.1596
      2 C2          1.2198   -0.6579   -0.0131 C.2       1 <0>        -0.1406
      3 C3          2.3597    0.0756   -0.0201 C.2       1 <0>        -0.1528
      4 S1          1.7251    1.7443   -0.0050 S.3       1 <0>         0.0417
      5 C4         -0.0163    1.3513    0.0095 C.2       1 <0>        -0.1634
      6 C5          3.7912   -0.3952   -0.0358 C.3       1 <0>         0.0103
      7 H1          3.8192   -1.4847   -0.0513 H         1 <0>         0.1093
      8 C6          4.5175    0.1216    1.2075 C.3       1 <0>        -0.0950
      9 C7          5.9634   -0.3139    1.1693 C.2       1 <0>         0.2599
     10 C8          6.6082   -0.4764   -0.0057 C.2       1 <0>        -0.3161
     11 C9          8.0551   -0.9129   -0.0757 C.3       1 <0>         0.2731
     12 H2          8.5899   -0.2804   -0.7842 H         1 <0>         0.1180
     13 N1          8.6754   -0.7957    1.2377 N.pl3     1 <0>        -0.3854
     14 C10         7.9708   -0.6210    2.3831 C.2       1 <0>         0.4873
     15 N2          8.8184   -0.5627    3.3730 N.2       1 <0>        -0.5409
     16 C11        10.0636   -0.6904    2.9036 C.2       1 <0>         0.2197
     17 N3         10.0206   -0.8339    1.6018 N.2       1 <0>        -0.2890
     18 N4          6.5885   -0.5286    2.3744 N.pl3     1 <0>        -0.6069
     19 C12         8.1233   -2.3467   -0.5348 C.ar      1 <0>        -0.0659
     20 C13         7.5138   -3.3401    0.2085 C.ar      1 <0>        -0.0994
     21 C14         7.5718   -4.6546   -0.2155 C.ar      1 <0>        -0.0715
     22 C15         8.2490   -4.9771   -1.3766 C.ar      1 <0>        -0.1731
     23 C16         8.8630   -3.9843   -2.1171 C.ar      1 <0>        -0.0680
     24 C17         8.8001   -2.6691   -1.6962 C.ar      1 <0>        -0.0802
     25 C18         8.3176   -6.4109   -1.8355 C.3       1 <0>         0.5083
     26 F1          9.4481   -7.0234   -1.2842 F         1 <0>        -0.1748
     27 F2          7.1684   -7.0900   -1.4168 F         1 <0>        -0.1763
     28 F3          8.4000   -6.4503   -3.2315 F         1 <0>        -0.1747
     29 C19         5.9499   -0.2472   -1.2277 C.2       1 <0>         0.4139
     30 O1          6.5644   -0.3798   -2.2677 O.2       1 <0>        -0.4573
     31 C20         4.5031    0.1580   -1.2750 C.3       1 <0>        -0.1489
     32 H3         -0.9210   -0.5647    0.0075 H         1 <0>         0.1364
     33 H4          1.2625   -1.7370   -0.0190 H         1 <0>         0.1351
     34 H5         -0.8644    2.0199    0.0173 H         1 <0>         0.1875
     35 H6          4.4670    1.2101    1.2309 H         1 <0>         0.1145
     36 H7          4.0405   -0.2824    2.1004 H         1 <0>         0.1062
     37 H8         10.9625   -0.6770    3.5023 H         1 <0>         0.2286
     38 H9          6.0771   -0.6132    3.1943 H         1 <0>         0.4418
     39 H10         6.9888   -3.0888    1.1182 H         1 <0>         0.1225
     40 H11         7.0919   -5.4302    0.3629 H         1 <0>         0.1377
     41 H12         9.3921   -4.2362   -3.0243 H         1 <0>         0.1416
     42 H13         9.2800   -1.8934   -2.2745 H         1 <0>         0.1407
     43 H14         4.0742   -0.2123   -2.0989 H         1 <0>         0.0976
     44 H15         4.4287    1.2455   -1.2835 H         1 <0>         0.1079
@<TRIPOS>BOND
     1    1    5 2
     2    1    2 1
     3    1   32 1
     4    2    3 2
     5    2   33 1
     6    3    4 1
     7    3    6 1
     8    4    5 1
     9    5   34 1
    10    6    7 1
    11    6   31 1
    12    6    8 1
    13    8    9 1
    14    8   35 1
    15    8   36 1
    16    9   18 1
    17    9   10 2
    18   10   11 1
    19   10   29 1
    20   11   12 1
    21   11   13 1
    22   11   19 1
    23   13   17 1
    24   13   14 1
    25   14   15 2
    26   14   18 1
    27   15   16 1
    28   16   17 2
    29   16   37 1
    30   18   38 1
    31   19   24 ar
    32   19   20 ar
    33   20   21 ar
    34   20   39 1
    35   21   22 ar
    36   21   40 1
    37   22   23 ar
    38   22   25 1
    39   23   24 ar
    40   23   41 1
    41   24   42 1
    42   25   26 1
    43   25   27 1
    44   25   28 1
    45   29   30 2
    46   29   31 1
    47   31   43 1
    48   31   44 1
@<TRIPOS>MOLECULE
ZINC39573974
   40    43     0     0     0
SMALL
USER_CHARGES

@<TRIPOS>ATOM
      1 C1         -0.0167    1.3781    0.0096 C.ar      1 <0>        -0.1047
      2 C2          1.1645    2.0985    0.0022 C.ar      1 <0>        -0.1209
      3 C3          2.3756    1.4333   -0.0309 C.ar      1 <0>        -0.0824
      4 C4          2.3955    0.0475   -0.0561 C.ar      1 <0>        -0.0270
      5 C5          1.2055   -0.6839   -0.0130 C.ar      1 <0>        -0.0679
      6 C6          0.0021   -0.0041    0.0020 C.ar      1 <0>        -0.1173
      7 C7          1.2185   -2.1859    0.0662 C.3       1 <0>        -0.0802
      8 C8          2.3810   -2.7963   -0.7176 C.3       1 <0>        -0.0571
      9 C9          3.6384   -2.0386   -0.4259 C.2       1 <0>        -0.1207
     10 C10         3.6671   -0.7163   -0.1250 C.2       1 <0>         0.0130
     11 N1          4.9412   -0.3165    0.0715 N.2       1 <0>        -0.1360
     12 N2          5.7839   -1.2152   -0.0525 N.2       1 <0>        -0.1200
     13 C11         5.0765   -2.4677   -0.3882 C.3       1 <0>        -0.0450
     14 H1          5.3936   -2.8409   -1.3619 H         1 <0>         0.1757
     15 C12         5.2954   -3.5073    0.6806 C.2       1 <0>         0.5745
     16 O1          5.7653   -3.1863    1.7519 O.2       1 <0>        -0.4623
     17 N3          4.9689   -4.7938    0.4462 N.am      1 <0>        -0.5838
     18 N4          5.1724   -5.7603    1.4398 N.2       1 <0>        -0.1866
     19 C13         4.8581   -6.9989    1.2141 C.2       1 <0>         0.0894
     20 C14         5.0723   -8.0163    2.2599 C.ar      1 <0>        -0.0319
     21 C15         4.7406   -9.3517    2.0185 C.ar      1 <0>        -0.0851
     22 C16         4.9440  -10.2979    3.0010 C.ar      1 <0>        -0.1103
     23 C17         5.4755   -9.9277    4.2241 C.ar      1 <0>        -0.0970
     24 C18         5.8062   -8.6076    4.4712 C.ar      1 <0>        -0.0977
     25 C19         5.6135   -7.6502    3.4953 C.ar      1 <0>        -0.0724
     26 Br1         6.0740   -5.8473    3.8318 Br        1 <0>         0.0144
     27 H2         -0.9619    1.9004    0.0260 H         1 <0>         0.1273
     28 H3          1.1402    3.1781    0.0219 H         1 <0>         0.1306
     29 H4          3.3010    1.9900   -0.0374 H         1 <0>         0.1349
     30 H5         -0.9269   -0.5548    0.0082 H         1 <0>         0.1286
     31 H6          1.3013   -2.4842    1.1113 H         1 <0>         0.0830
     32 H7          0.2808   -2.5693   -0.3359 H         1 <0>         0.0922
     33 H8          2.5089   -3.8382   -0.4240 H         1 <0>         0.0875
     34 H9          2.1657   -2.7446   -1.7849 H         1 <0>         0.0998
     35 H10         4.5931   -5.0505   -0.4104 H         1 <0>         0.3825
     36 H11         4.4397   -7.2847    0.2604 H         1 <0>         0.1290
     37 H12         4.3254   -9.6423    1.0648 H         1 <0>         0.1372
     38 H13         4.6875  -11.3305    2.8155 H         1 <0>         0.1350
     39 H14         5.6325  -10.6733    4.9895 H         1 <0>         0.1349
     40 H15         6.2198   -8.3258    5.4282 H         1 <0>         0.1365
@<TRIPOS>BOND
     1    1    6 ar
     2    1    2 ar
     3    1   27 1
     4    2    3 ar
     5    2   28 1
     6    3    4 ar
     7    3   29 1
     8    4   10 1
     9    4    5 ar
    10    5    6 ar
    11    5    7 1
    12    6   30 1
    13    7    8 1
    14    7   31 1
    15    7   32 1
    16    8    9 1
    17    8   33 1
    18    8   34 1
    19    9   13 1
    20    9   10 2
    21   10   11 1
    22   11   12 2
    23   12   13 1
    24   13   14 1
    25   13   15 1
    26   15   16 2
    27   15   17 am
    28   17   18 1
    29   17   35 1
    30   18   19 2
    31   19   20 1
    32   19   36 1
    33   20   25 ar
    34   20   21 ar
    35   21   22 ar
    36   21   37 1
    37   22   23 ar
    38   22   38 1
    39   23   24 ar
    40   23   39 1
    41   24   25 ar
    42   24   40 1
    43   25   26 1
@<TRIPOS>MOLECULE
ZINC06028677
   37    40     0     0     0
SMALL
USER_CHARGES

@<TRIPOS>ATOM
      1 C1         -0.0225    1.8097    0.0120 C.3       1 <0>        -0.1517
      2 S1          0.0021   -0.0041    0.0020 S.3       1 <0>         0.0578
      3 C2          0.8484   -0.4107   -1.4889 C.2       1 <0>         0.0534
      4 N1          1.3630    0.3894   -2.4029 N.2       1 <0>        -0.3029
      5 N2          1.9903   -0.1444   -3.5048 N.2       1 <0>        -0.3043
      6 C3          2.0743   -1.4537   -3.6422 C.2       1 <0>         0.0274
      7 S2          1.2459   -2.0165   -2.1630 S.3       1 <0>         0.0754
      8 S3          2.8121   -2.3956   -4.9357 S.3       1 <0>         0.1642
      9 C4          3.4554   -1.1427   -6.0789 C.3       1 <0>        -0.0961
     10 C5          4.1211   -1.8232   -7.2472 C.2       1 <0>         0.4204
     11 N3          4.6808   -1.0690   -8.2278 N.am      1 <0>        -0.6281
     12 H1          4.6444   -0.1019   -8.1626 H         1 <0>         0.4241
     13 C6          5.2856   -1.6359   -9.2884 C.2       1 <0>         0.5585
     14 O1          5.7840   -0.9448  -10.1600 O.2       1 <0>        -0.5123
     15 C7          5.3341   -3.0659   -9.3755 C.2       1 <0>        -0.2367
     16 C8          5.9305   -3.8924  -10.4241 C.2       1 <0>        -0.0532
     17 C9          5.8433   -5.2308  -10.2722 C.2       1 <0>        -0.1643
     18 S4          4.9744   -5.4642   -8.7449 S.3       1 <0>         0.1638
     19 C10         4.7294   -3.7597   -8.3154 C.2       1 <0>         0.0991
     20 N4          4.1542   -3.1282   -7.2958 N.2       1 <0>        -0.4770
     21 C11         6.3682   -6.2855  -11.1979 C.3       1 <0>        -0.0385
     22 C12         6.7009   -5.6261  -12.5440 C.3       1 <0>        -0.1156
     23 C13         7.5155   -4.3562  -12.2805 C.3       1 <0>        -0.1235
     24 C14         6.6240   -3.2900  -11.6428 C.3       1 <0>        -0.0600
     25 H2          1.0001    2.1870    0.0043 H         1 <0>         0.0956
     26 H3         -0.5497    2.1708   -0.8711 H         1 <0>         0.0956
     27 H4         -0.5327    2.1613    0.9088 H         1 <0>         0.1222
     28 H5          2.6339   -0.5235   -6.4390 H         1 <0>         0.1403
     29 H6          4.1821   -0.5170   -5.5607 H         1 <0>         0.1401
     30 H7          7.2687   -6.7305  -10.7745 H         1 <0>         0.0880
     31 H8          5.6111   -7.0559  -11.3437 H         1 <0>         0.0861
     32 H9          7.2849   -6.3150  -13.1543 H         1 <0>         0.0772
     33 H10         5.7777   -5.3673  -13.0625 H         1 <0>         0.0699
     34 H11         8.3407   -4.5885  -11.6074 H         1 <0>         0.0666
     35 H12         7.9135   -3.9792  -13.2227 H         1 <0>         0.0726
     36 H13         5.8753   -2.9605  -12.3633 H         1 <0>         0.0798
     37 H14         7.2342   -2.4414  -11.3335 H         1 <0>         0.0861
@<TRIPOS>BOND
     1    1    2 1
     2    1   25 1
     3    1   26 1
     4    1   27 1
     5    2    3 1
     6    3    7 1
     7    3    4 2
     8    4    5 1
     9    5    6 2
    10    6    7 1
    11    6    8 1
    12    8    9 1
    13    9   10 1
    14    9   28 1
    15    9   29 1
    16   10   20 2
    17   10   11 1
    18   11   12 1
    19   11   13 am
    20   13   14 2
    21   13   15 1
    22   15   19 2
    23   15   16 1
    24   16   24 1
    25   16   17 2
    26   17   18 1
    27   17   21 1
    28   18   19 1
    29   19   20 1
    30   21   22 1
    31   21   30 1
    32   21   31 1
    33   22   23 1
    34   22   32 1
    35   22   33 1
    36   23   24 1
    37   23   34 1
    38   23   35 1
    39   24   36 1
    40   24   37 1
@<TRIPOS>MOLECULE
ZINC65423729
   51    53     0     0     0
SMALL
USER_CHARGES

@<TRIPOS>ATOM
      1 C1         -0.8634   -0.3275   -1.1559 C.3       1 <0>        -0.1252
      2 C2          0.3854    0.2422   -0.4800 C.3       1 <0>        -0.0399
      3 C3          0.5977    1.6872   -0.9360 C.3       1 <0>        -0.1576
      4 C4          0.2065    0.2087    1.0159 C.ar      1 <0>        -0.0794
      5 C5          0.9771   -0.6429    1.7853 C.ar      1 <0>        -0.1206
      6 C6          0.8130   -0.6737    3.1575 C.ar      1 <0>        -0.1151
      7 C7         -0.1214    0.1475    3.7604 C.ar      1 <0>        -0.1148
      8 C8         -0.8913    0.9998    2.9912 C.ar      1 <0>        -0.1130
      9 C9         -0.7242    1.0336    1.6194 C.ar      1 <0>        -0.1072
     10 C10         1.5851   -0.5863   -0.8612 C.2       1 <0>         0.5322
     11 O1          1.4439   -1.5816   -1.5396 O.2       1 <0>        -0.5272
     12 N1          2.8150   -0.2211   -0.4481 N.am      1 <0>        -0.6118
     13 C11         2.9900    0.9165    0.4657 C.3       1 <0>         0.0787
     14 C12         3.7727    0.4410    1.6959 C.3       1 <0>         0.1073
     15 N2          4.9627   -0.2917    1.2410 N.am      1 <0>        -0.6203
     16 C13         4.7877   -1.4293    0.3273 C.3       1 <0>         0.0935
     17 C14         4.0045   -0.9573   -0.8985 C.3       1 <0>         0.0943
     18 C15         6.1926    0.0735    1.6541 C.2       1 <0>         0.7135
     19 O2          6.3190    0.9539    2.4831 O.2       1 <0>        -0.5605
     20 N3          7.2823   -0.5373    1.1483 N.am      1 <0>        -0.6774
     21 C16         8.5521   -0.2418    1.6607 C.ar      1 <0>         0.1689
     22 C17         8.6768    0.3618    2.9048 C.ar      1 <0>        -0.1276
     23 C18         9.9296    0.6528    3.4088 C.ar      1 <0>        -0.0725
     24 C19        11.0611    0.3444    2.6764 C.ar      1 <0>        -0.1498
     25 C20        10.9429   -0.2573    1.4349 C.ar      1 <0>         0.0941
     26 C21         9.6895   -0.5574    0.9273 C.ar      1 <0>         0.0229
     27 F1          9.5728   -1.1498   -0.2812 F         1 <0>        -0.1289
     28 F2         12.0502   -0.5570    0.7213 F         1 <0>        -0.1246
     29 H1         -0.7684   -0.2287   -2.2372 H         1 <0>         0.0661
     30 H2         -0.9692   -1.3806   -0.8952 H         1 <0>         0.0669
     31 H3         -1.7423    0.2208   -0.8168 H         1 <0>         0.0664
     32 H4         -0.2143    2.3098   -0.5604 H         1 <0>         0.0753
     33 H5          1.5473    2.0550   -0.5473 H         1 <0>         0.0730
     34 H6          0.6115    1.7262   -2.0252 H         1 <0>         0.0680
     35 H7          1.7070   -1.2845    1.3142 H         1 <0>         0.1215
     36 H8          1.4145   -1.3396    3.7585 H         1 <0>         0.1232
     37 H9         -0.2501    0.1229    4.8325 H         1 <0>         0.1244
     38 H10        -1.6215    1.6411    3.4623 H         1 <0>         0.1259
     39 H11        -1.3231    1.7022    1.0188 H         1 <0>         0.1265
     40 H12         3.5452    1.7080   -0.0377 H         1 <0>         0.0774
     41 H13         2.0141    1.2907    0.7751 H         1 <0>         0.1180
     42 H14         4.0783    1.3021    2.2903 H         1 <0>         0.1100
     43 H15         3.1453   -0.2173    2.2967 H         1 <0>         0.0852
     44 H16         5.7636   -1.8035    0.0178 H         1 <0>         0.0891
     45 H17         4.2325   -2.2208    0.8307 H         1 <0>         0.0841
     46 H18         3.6985   -1.8204   -1.4898 H         1 <0>         0.1103
     47 H19         4.6336   -0.3023   -1.5013 H         1 <0>         0.0762
     48 H20         7.1873   -1.1816    0.4294 H         1 <0>         0.4118
     49 H21         7.7944    0.6043    3.4783 H         1 <0>         0.1751
     50 H22        10.0255    1.1223    4.3766 H         1 <0>         0.1459
     51 H23        12.0391    0.5735    3.0733 H         1 <0>         0.1476
@<TRIPOS>BOND
     1    1    2 1
     2    1   29 1
     3    1   30 1
     4    1   31 1
     5    2    3 1
     6    2    4 1
     7    2   10 1
     8    3   32 1
     9    3   33 1
    10    3   34 1
    11    4    9 ar
    12    4    5 ar
    13    5    6 ar
    14    5   35 1
    15    6    7 ar
    16    6   36 1
    17    7    8 ar
    18    7   37 1
    19    8    9 ar
    20    8   38 1
    21    9   39 1
    22   10   11 2
    23   10   12 am
    24   12   17 1
    25   12   13 1
    26   13   14 1
    27   13   40 1
    28   13   41 1
    29   14   15 1
    30   14   42 1
    31   14   43 1
    32   15   16 1
    33   15   18 am
    34   16   17 1
    35   16   44 1
    36   16   45 1
    37   17   46 1
    38   17   47 1
    39   18   19 2
    40   18   20 am
    41   20   21 1
    42   20   48 1
    43   21   26 ar
    44   21   22 ar
    45   22   23 ar
    46   22   49 1
    47   23   24 ar
    48   23   50 1
    49   24   25 ar
    50   24   51 1
    51   25   26 ar
    52   25   28 1
    53   26   27 1
@<TRIPOS>MOLECULE
ZINC05882075
   37    39     0     0     0
SMALL
USER_CHARGES
N-(2-bromo-4,5-dimethyl-phenyl)-2-oxo-1,3-dihydrobenzoimidazole-5-sulfonamide
@<TRIPOS>ATOM
      1 C1          1.1825    6.3293   -2.2653 C.3       1 <0>        -0.1260
      2 C2          1.9061    5.1145   -2.7865 C.ar      1 <0>        -0.0375
      3 C3          2.7579    4.4104   -1.9575 C.ar      1 <0>        -0.1674
      4 C4          3.4287    3.2944   -2.4399 C.ar      1 <0>         0.1825
      5 C5          3.2318    2.8829   -3.7529 C.ar      1 <0>        -0.1143
      6 C6          2.3741    3.5884   -4.5747 C.ar      1 <0>        -0.0634
      7 C7          1.7122    4.7027   -4.0920 C.ar      1 <0>        -0.0941
      8 C8          0.7778    5.4702   -4.9914 C.3       1 <0>        -0.1185
      9 Br1         4.1361    1.3590   -4.4132 Br        1 <0>        -0.0411
     10 N1          4.2954    2.5835   -1.6057 N.pl3     1 <0>        -1.0519
     11 S1          3.9439    2.4164    0.0039 S.o2      1 <0>         2.6948
     12 O1          3.7239    3.7260    0.5097 O.2       1 <0>        -0.9396
     13 O2          4.9273    1.5456    0.5461 O.2       1 <0>        -0.9411
     14 C9          2.4036    1.5681    0.1155 C.ar      1 <0>        -0.6710
     15 C10         1.2209    2.2874    0.1408 C.ar      1 <0>        -0.0053
     16 C11         0.0087    1.6315    0.2285 C.ar      1 <0>        -0.1222
     17 C12        -0.0239    0.2467    0.2906 C.ar      1 <0>         0.1512
     18 C13         1.1689   -0.4787    0.2643 C.ar      1 <0>         0.0698
     19 C14         2.3811    0.1886    0.1765 C.ar      1 <0>         0.0055
     20 N2          0.8225   -1.8257    0.3400 N.am      1 <0>        -0.6387
     21 H1          1.4423   -2.5719    0.3428 H         1 <0>         0.4407
     22 C15        -0.5191   -1.9155    0.4093 C.2       1 <0>         0.6869
     23 O3         -1.1490   -2.9539    0.4849 O.2       1 <0>        -0.5416
     24 N3         -1.0580   -0.6820    0.3816 N.am      1 <0>        -0.6397
     25 H2         -2.0050   -0.4753    0.4186 H         1 <0>         0.4409
     26 H3          0.2274    6.0269   -1.8359 H         1 <0>         0.0794
     27 H4          1.7887    6.8123   -1.4989 H         1 <0>         0.0755
     28 H5          1.0081    7.0274   -3.0840 H         1 <0>         0.0773
     29 H6          2.9050    4.7300   -0.9364 H         1 <0>         0.1709
     30 H7          2.2207    3.2696   -5.5951 H         1 <0>         0.1379
     31 H8         -0.2284    5.0600   -4.9049 H         1 <0>         0.0747
     32 H9          0.7690    6.5194   -4.6958 H         1 <0>         0.0757
     33 H10         1.1168    5.3864   -6.0239 H         1 <0>         0.0690
     34 H11         5.1029    2.1879   -1.9694 H         1 <0>         0.4310
     35 H12         1.2464    3.3660    0.0921 H         1 <0>         0.1521
     36 H13        -0.9121    2.1958    0.2441 H         1 <0>         0.1460
     37 H14         3.3058   -0.3691    0.1562 H         1 <0>         0.1518
@<TRIPOS>BOND
     1    1    2 1
     2    1   26 1
     3    1   27 1
     4    1   28 1
     5    2    7 ar
     6    2    3 ar
     7    3    4 ar
     8    3   29 1
     9    4    5 ar
    10    4   10 1
    11    5    6 ar
    12    5    9 1
    13    6    7 ar
    14    6   30 1
    15    7    8 1
    16    8   31 1
    17    8   32 1
    18    8   33 1
    19   10   11 1
    20   10   34 1
    21   11   12 2
    22   11   13 2
    23   11   14 1
    24   14   19 ar
    25   14   15 ar
    26   15   16 ar
    27   15   35 1
    28   16   17 ar
    29   16   36 1
    30   17   24 1
    31   17   18 ar
    32   18   19 ar
    33   18   20 1
    34   19   37 1
    35   20   21 1
    36   20   22 am
    37   22   23 2
    38   22   24 am
    39   24   25 1
@<TRIPOS>MOLECULE
ZINC13639856
   56    60     0     0     0
SMALL
USER_CHARGES
4-[(3aS,4S,9bS)-8-(1-piperidylsulfonyl)-3a,4,5,9b-tetrahydro-3H-cyclopenta[c]quinolin-4-yl]benzene-1,3-diol
@<TRIPOS>ATOM
      1 C1          2.1456    1.7475    4.6966 C.ar      1 <0>        -0.1491
      2 C2          0.8822    1.7058    4.1381 C.ar      1 <0>        -0.0811
      3 C3          0.6163    0.8475    3.0887 C.ar      1 <0>        -0.1296
      4 C4          1.6209    0.0328    2.5854 C.ar      1 <0>         0.1390
      5 C5          2.8905    0.0768    3.1402 C.ar      1 <0>        -0.1683
      6 C6          3.1533    0.9351    4.1970 C.ar      1 <0>         0.1276
      7 O1          4.3969    0.9801    4.7433 O.3       1 <0>        -0.4958
      8 O2          1.3603   -0.8070    1.5492 O.3       1 <0>        -0.4951
      9 C7         -0.7641    0.8001    2.4860 C.3       1 <0>         0.2110
     10 H1         -1.0504   -0.2318    2.2825 H         1 <0>         0.0943
     11 C8         -0.8070    1.6184    1.2079 C.3       1 <0>        -0.1006
     12 H2         -0.5999    2.6732    1.3884 H         1 <0>         0.0963
     13 C9         -0.0127    1.0858    0.0080 C.3       1 <0>        -0.1004
     14 C10        -0.8273    1.6296   -1.1673 C.2       1 <0>        -0.1639
     15 C11        -2.0876    1.8202   -0.7964 C.2       1 <0>        -0.1459
     16 C12        -2.2344    1.3982    0.6203 C.3       1 <0>        -0.0282
     17 H3         -2.4360    0.3271    0.6347 H         1 <0>         0.0877
     18 C13        -3.1886    2.0585    1.5375 C.ar      1 <0>        -0.1592
     19 C14        -4.3543    2.6506    1.0810 C.ar      1 <0>         0.0317
     20 C15        -5.2361    3.2294    1.9749 C.ar      1 <0>        -0.7265
     21 C16        -4.9643    3.2002    3.3307 C.ar      1 <0>         0.0255
     22 C17        -3.8115    2.6004    3.7937 C.ar      1 <0>        -0.2115
     23 C18        -2.9152    2.0213    2.9033 C.ar      1 <0>         0.2745
     24 N1         -1.7442    1.4326    3.3959 N.pl3     1 <0>        -0.7374
     25 S1         -6.7059    4.0034    1.3871 S.o2      1 <0>         2.6934
     26 O3         -6.9966    3.4177    0.1254 O.2       1 <0>        -0.9597
     27 O4         -7.6315    3.9889    2.4651 O.2       1 <0>        -0.9596
     28 N2         -6.3405    5.5925    1.0982 N.pl3     1 <0>        -0.9979
     29 C19        -6.5034    6.6018    2.1534 C.3       1 <0>         0.1197
     30 C20        -5.1768    7.3598    2.3135 C.3       1 <0>        -0.1356
     31 C21        -4.7554    7.9309    0.9577 C.3       1 <0>        -0.1178
     32 C22        -4.5390    6.7862   -0.0349 C.3       1 <0>        -0.1357
     33 C23        -5.8531    6.0209   -0.2200 C.3       1 <0>         0.1203
     34 H4          2.3500    2.4164    5.5195 H         1 <0>         0.1348
     35 H5          0.1002    2.3422    4.5254 H         1 <0>         0.1323
     36 H6          3.6736   -0.5561    2.7497 H         1 <0>         0.1397
     37 H7          4.9848    1.6270    4.3299 H         1 <0>         0.3954
     38 H8          1.5129   -0.4160    0.6781 H         1 <0>         0.3914
     39 H9          0.0021   -0.0041    0.0020 H         1 <0>         0.0924
     40 H10         1.0003    1.4882    0.0005 H         1 <0>         0.0735
     41 H11        -0.4349    1.8289   -2.1536 H         1 <0>         0.1335
     42 H12        -2.8751    2.2159   -1.4207 H         1 <0>         0.1347
     43 H13        -4.5688    2.6742    0.0228 H         1 <0>         0.1361
     44 H14        -5.6561    3.6483    4.0285 H         1 <0>         0.1375
     45 H15        -3.6042    2.5812    4.8534 H         1 <0>         0.1298
     46 H16        -1.5725    1.4398    4.3505 H         1 <0>         0.4039
     47 H17        -7.2939    7.2984    1.8739 H         1 <0>         0.0754
     48 H18        -6.7611    6.1110    3.0919 H         1 <0>         0.0902
     49 H19        -4.4072    6.6784    2.6764 H         1 <0>         0.0672
     50 H20        -5.3080    8.1739    3.0263 H         1 <0>         0.0747
     51 H21        -3.8281    8.4921    1.0724 H         1 <0>         0.0638
     52 H22        -5.5366    8.5928    0.5840 H         1 <0>         0.0651
     53 H23        -3.7754    6.1103    0.3501 H         1 <0>         0.0671
     54 H24        -4.2163    7.1922   -0.9936 H         1 <0>         0.0748
     55 H25        -5.6814    5.1467   -0.8479 H         1 <0>         0.0894
     56 H26        -6.5916    6.6710   -0.6891 H         1 <0>         0.0750
@<TRIPOS>BOND
     1    1    6 ar
     2    1    2 ar
     3    1   34 1
     4    2    3 ar
     5    2   35 1
     6    3    4 ar
     7    3    9 1
     8    4    5 ar
     9    4    8 1
    10    5    6 ar
    11    5   36 1
    12    6    7 1
    13    7   37 1
    14    8   38 1
    15    9   10 1
    16    9   24 1
    17    9   11 1
    18   11   12 1
    19   11   16 1
    20   11   13 1
    21   13   14 1
    22   13   39 1
    23   13   40 1
    24   14   15 2
    25   14   41 1
    26   15   16 1
    27   15   42 1
    28   16   17 1
    29   16   18 1
    30   18   23 ar
    31   18   19 ar
    32   19   20 ar
    33   19   43 1
    34   20   21 ar
    35   20   25 1
    36   21   22 ar
    37   21   44 1
    38   22   23 ar
    39   22   45 1
    40   23   24 1
    41   24   46 1
    42   25   26 2
    43   25   27 2
    44   25   28 1
    45   28   33 1
    46   28   29 1
    47   29   30 1
    48   29   47 1
    49   29   48 1
    50   30   31 1
    51   30   49 1
    52   30   50 1
    53   31   32 1
    54   31   51 1
    55   31   52 1
    56   32   33 1
    57   32   53 1
    58   32   54 1
    59   33   55 1
    60   33   56 1
@<TRIPOS>MOLECULE
ZINC39544795
   53    56     0     0     0
SMALL
NO_CHARGES

@<TRIPOS>ATOM
      1 C1          4.3852   -1.1557   -2.7112 C.3       1 <0>        -0.1622
      2 C2          3.6954   -1.9411   -1.5939 C.3       1 <0>        -0.1051
      3 C3          4.6801   -2.9473   -0.9949 C.3       1 <0>        -0.1480
      4 C4          3.2283   -0.9741   -0.5042 C.3       1 <0>         0.1190
      5 N1          2.1740   -0.1085   -1.0386 N.am      1 <0>        -0.5590
      6 C5          0.8290   -0.4774   -0.9033 C.ar      1 <0>         0.0941
      7 C6          0.1058   -0.0741    0.2097 C.ar      1 <0>        -0.0998
      8 C7         -1.2206   -0.4392    0.3409 C.ar      1 <0>        -0.1158
      9 C8         -1.8300   -1.2063   -0.6350 C.ar      1 <0>        -0.0941
     10 C9         -1.1156   -1.6123   -1.7467 C.ar      1 <0>        -0.1363
     11 C10         0.2129   -1.2453   -1.8888 C.ar      1 <0>         0.1063
     12 O1          0.9151   -1.6383   -2.9848 O.3       1 <0>        -0.4913
     13 C11         2.4978    1.0426   -1.6604 C.2       1 <0>         0.5049
     14 O2          3.6578    1.3909   -1.7261 O.2       1 <0>        -0.5168
     15 C12         1.4186    1.8970   -2.2740 C.3       1 <0>        -0.0341
     16 H1          0.4330    1.5183   -2.0035 H         1 <0>         0.1180
     17 C13         1.5739    3.3643   -1.8301 C.3       1 <0>        -0.0416
     18 C14         1.8368    4.1130   -3.1170 C.2       1 <0>        -0.2245
     19 C15         1.8297    3.2717   -4.1194 C.2       1 <0>         0.1527
     20 N2          2.0736    3.5900   -5.4696 N.pl3     1 <0>        -0.6544
     21 C16         2.7849    2.6132   -6.1873 C.ar      1 <0>         0.1685
     22 C17         3.1813    2.8682   -7.4922 C.ar      1 <0>        -0.1691
     23 C18         3.8718    1.9043   -8.2012 C.ar      1 <0>        -0.0842
     24 C19         4.1642    0.6903   -7.6063 C.ar      1 <0>        -0.1737
     25 C20         3.7728    0.4379   -6.3057 C.ar      1 <0>        -0.0646
     26 C21         3.0845    1.3997   -5.5845 C.ar      1 <0>        -0.1751
     27 C22         2.6940    1.1048   -4.1602 C.3       1 <0>        -0.0454
     28 N3          1.5688    1.9455   -3.7374 N.4       1 <0>        -0.2979
     29 Br1         2.1298    5.9760   -3.2565 Br        1 <0>        -0.0701
     30 H2          3.6581   -0.5105   -3.2042 H         1 <0>         0.0699
     31 H3          5.1834   -0.5462   -2.2875 H         1 <0>         0.0624
     32 H4          4.8057   -1.8509   -3.4378 H         1 <0>         0.0497
     33 H5          2.8353   -2.4726   -2.0011 H         1 <0>         0.0622
     34 H6          5.5402   -2.4158   -0.5878 H         1 <0>         0.0593
     35 H7          4.1886   -3.5068   -0.1990 H         1 <0>         0.0549
     36 H8          5.0129   -3.6363   -1.7713 H         1 <0>         0.0600
     37 H9          2.8392   -1.5406    0.3419 H         1 <0>         0.0785
     38 H10         4.0689   -0.3626   -0.1763 H         1 <0>         0.0915
     39 H11         0.5793    0.5247    0.9736 H         1 <0>         0.1331
     40 H12        -1.7825   -0.1250    1.2080 H         1 <0>         0.1336
     41 H13        -2.8668   -1.4892   -0.5282 H         1 <0>         0.1330
     42 H14        -1.5943   -2.2119   -2.5067 H         1 <0>         0.1354
     43 H15         1.3630   -2.4890   -2.8807 H         1 <0>         0.3903
     44 H16         0.6563    3.7206   -1.3618 H         1 <0>         0.0871
     45 H17         2.4175    3.4696   -1.1479 H         1 <0>         0.0901
     46 H18         2.9510    3.8177   -7.9524 H         1 <0>         0.1203
     47 H19         4.1822    2.0980   -9.2173 H         1 <0>         0.1208
     48 H20         4.7011   -0.0644   -8.1617 H         1 <0>         0.1173
     49 H21         4.0045   -0.5132   -5.8494 H         1 <0>         0.1167
     50 H22         2.4054    0.0569   -4.0778 H         1 <0>         0.0986
     51 H23         3.5476    1.2923   -3.5089 H         1 <0>         0.1440
     52 H24         1.7735    4.4194   -5.8732 H         1 <0>         0.4207
     53 H25         0.7195    1.6239   -4.1771 H         1 <0>         0.3701
@<TRIPOS>BOND
     1    1    2 1
     2    1   30 1
     3    1   31 1
     4    1   32 1
     5    2    3 1
     6    2    4 1
     7    2   33 1
     8    3   34 1
     9    3   35 1
    10    3   36 1
    11    4    5 1
    12    4   37 1
    13    4   38 1
    14    5    6 1
    15    5   13 am
    16    6   11 ar
    17    6    7 ar
    18    7    8 ar
    19    7   39 1
    20    8    9 ar
    21    8   40 1
    22    9   10 ar
    23    9   41 1
    24   10   11 ar
    25   10   42 1
    26   11   12 1
    27   12   43 1
    28   13   14 2
    29   13   15 1
    30   15   16 1
    31   15   28 1
    32   15   17 1
    33   17   18 1
    34   17   44 1
    35   17   45 1
    36   18   19 2
    37   18   29 1
    38   19   28 1
    39   19   20 1
    40   20   21 1
    41   20   52 1
    42   21   26 ar
    43   21   22 ar
    44   22   23 ar
    45   22   46 1
    46   23   24 ar
    47   23   47 1
    48   24   25 ar
    49   24   48 1
    50   25   26 ar
    51   25   49 1
    52   26   27 1
    53   27   28 1
    54   27   50 1
    55   27   51 1
    56   28   53 1
@<TRIPOS>MOLECULE
ZINC35361033
   61    64     0     0     0
SMALL
USER_CHARGES

@<TRIPOS>ATOM
      1 C1         -0.0184    1.5028    0.0103 C.3       1 <0>        -0.1483
      2 C2          0.0021   -0.0041    0.0020 C.2       1 <0>         0.4565
      3 O1          1.0565   -0.5939   -0.0112 O.2       1 <0>        -0.5102
      4 O2         -1.1511   -0.6910    0.0093 O.3       1 <0>        -0.3493
      5 C3         -1.0570   -2.1168    0.0008 C.3       1 <0>         0.0915
      6 H1         -0.1401   -2.4234    0.5042 H         1 <0>         0.0830
      7 C4         -2.2626   -2.7117    0.7303 C.3       1 <0>        -0.1184
      8 C5         -2.1218   -4.2334    0.8040 C.3       1 <0>        -0.1055
      9 C6         -2.1238   -4.8126   -0.6136 C.3       1 <0>        -0.0130
     10 C7         -1.9621   -6.3220   -0.5606 C.3       1 <0>        -0.0687
     11 H2         -2.9249   -6.7801   -0.3342 H         1 <0>         0.0786
     12 C8         -0.9515   -6.7019    0.5273 C.3       1 <0>        -0.1228
     13 C9         -0.9046   -8.2265    0.6294 C.3       1 <0>        -0.1047
     14 C10        -0.5017   -8.8531   -0.6858 C.3       1 <0>         0.0021
     15 C11        -1.3714   -8.3870   -1.8677 C.3       1 <0>        -0.0745
     16 H3         -2.3494   -8.8681   -1.8789 H         1 <0>         0.1004
     17 C12        -1.4491   -6.8579   -1.8945 C.3       1 <0>        -0.0713
     18 H4         -2.1237   -6.5501   -2.6934 H         1 <0>         0.0765
     19 C13        -0.0562   -6.2715   -2.1480 C.3       1 <0>        -0.1093
     20 C14        -0.1415   -4.7728   -2.0948 C.2       1 <0>        -0.1517
     21 C15        -1.0586   -4.1375   -1.4277 C.2       1 <0>        -0.1037
     22 C16        -1.0371   -2.6184   -1.4461 C.3       1 <0>        -0.1010
     23 C17        -0.4860   -8.8048   -3.0798 C.3       1 <0>        -0.1160
     24 C18         0.9490   -8.4958   -2.5995 C.3       1 <0>        -0.1581
     25 C19         0.9164   -8.5193   -1.0821 C.2       1 <0>         0.1327
     26 N1          1.8993   -8.2983   -0.2924 N.2       1 <0>        -0.2540
     27 N2          3.1642   -7.9989   -0.8151 N.am      1 <0>        -0.5899
     28 C20         4.1992   -7.7663    0.0163 C.2       1 <0>         0.7350
     29 O3          5.2970   -7.5065   -0.4373 O.2       1 <0>        -0.5880
     30 N3          4.0173   -7.8218    1.3506 N.am      1 <0>        -0.8499
     31 C21        -0.6319  -10.3729   -0.5669 C.3       1 <0>        -0.1430
     32 C22        -3.4805   -4.5098   -1.2527 C.3       1 <0>        -0.1453
     33 H5          1.0042    1.8801    0.0026 H         1 <0>         0.1015
     34 H6         -0.5455    1.8639   -0.8728 H         1 <0>         0.1004
     35 H7         -0.5286    1.8543    0.9071 H         1 <0>         0.1006
     36 H8         -2.3137   -2.3030    1.7394 H         1 <0>         0.0726
     37 H9         -3.1747   -2.4577    0.1903 H         1 <0>         0.0792
     38 H10        -1.1851   -4.4884    1.2996 H         1 <0>         0.0721
     39 H11        -2.9569   -4.6491    1.3678 H         1 <0>         0.0773
     40 H12         0.0347   -6.3212    0.2615 H         1 <0>         0.0689
     41 H13        -1.2637   -6.2794    1.4823 H         1 <0>         0.0705
     42 H14        -0.1837   -8.5108    1.3958 H         1 <0>         0.0714
     43 H15        -1.8901   -8.5956    0.9135 H         1 <0>         0.0698
     44 H16         0.6337   -6.6252   -1.3818 H         1 <0>         0.0899
     45 H17         0.2972   -6.5822   -3.1312 H         1 <0>         0.0863
     46 H18         0.5867   -4.1963   -2.6459 H         1 <0>         0.1025
     47 H19        -1.9135   -2.2453   -1.9760 H         1 <0>         0.0813
     48 H20        -0.1315   -2.2702   -1.9428 H         1 <0>         0.0711
     49 H21        -0.5999   -9.8682   -3.2902 H         1 <0>         0.0753
     50 H22        -0.7331   -8.2097   -3.9590 H         1 <0>         0.0779
     51 H23         1.6378   -9.2553   -2.9695 H         1 <0>         0.0779
     52 H24         1.2559   -7.5106   -2.9508 H         1 <0>         0.1078
     53 H25         3.2951   -7.9590   -1.7754 H         1 <0>         0.4003
     54 H26         3.1415   -8.0291    1.7125 H         1 <0>         0.4077
     55 H27         4.7621   -7.6544    1.9490 H         1 <0>         0.4143
     56 H28        -1.6674  -10.6328   -0.3472 H         1 <0>         0.0680
     57 H29        -0.3320  -10.8378   -1.5060 H         1 <0>         0.0609
     58 H30         0.0110  -10.7308    0.2373 H         1 <0>         0.0603
     59 H31        -3.6325   -3.4310   -1.2888 H         1 <0>         0.0590
     60 H32        -3.5039   -4.9141   -2.2646 H         1 <0>         0.0563
     61 H33        -4.2719   -4.9685   -0.6598 H         1 <0>         0.0587
@<TRIPOS>BOND
     1    1    2 1
     2    1   33 1
     3    1   34 1
     4    1   35 1
     5    2    3 2
     6    2    4 1
     7    4    5 1
     8    5    6 1
     9    5   22 1
    10    5    7 1
    11    7    8 1
    12    7   36 1
    13    7   37 1
    14    8    9 1
    15    8   38 1
    16    8   39 1
    17    9   21 1
    18    9   10 1
    19    9   32 1
    20   10   11 1
    21   10   17 1
    22   10   12 1
    23   12   13 1
    24   12   40 1
    25   12   41 1
    26   13   14 1
    27   13   42 1
    28   13   43 1
    29   14   25 1
    30   14   15 1
    31   14   31 1
    32   15   16 1
    33   15   17 1
    34   15   23 1
    35   17   18 1
    36   17   19 1
    37   19   20 1
    38   19   44 1
    39   19   45 1
    40   20   21 2
    41   20   46 1
    42   21   22 1
    43   22   47 1
    44   22   48 1
    45   23   24 1
    46   23   49 1
    47   23   50 1
    48   24   25 1
    49   24   51 1
    50   24   52 1
    51   25   26 2
    52   26   27 1
    53   27   28 am
    54   27   53 1
    55   28   29 2
    56   28   30 am
    57   30   54 1
    58   30   55 1
    59   31   56 1
    60   31   57 1
    61   31   58 1
    62   32   59 1
    63   32   60 1
    64   32   61 1
@<TRIPOS>MOLECULE
ZINC65712642
   43    45     0     0     0
SMALL
USER_CHARGES

@<TRIPOS>ATOM
      1 C1          0.0052    1.4534    0.0051 C.3       1 <0>        -0.0786
      2 C2          0.0152   -0.0535    0.0016 C.2       1 <0>        -0.1695
      3 C3          0.0170   -0.8495   -1.0792 C.2       1 <0>         0.0778
      4 N1          0.0270   -2.1619   -0.6922 N.pl3     1 <0>        -0.5917
      5 H1          0.0300   -2.9210   -1.2961 H         1 <0>         0.4155
      6 C4          0.0320   -2.2446    0.6822 C.ar      1 <0>         0.1082
      7 C5          0.0313   -0.9275    1.1772 C.ar      1 <0>        -0.1045
      8 C6          0.0414   -0.7010    2.5545 C.ar      1 <0>        -0.0430
      9 C7          0.0556   -1.7615    3.4164 C.ar      1 <0>        -0.1433
     10 C8          0.0605   -3.0625    2.9332 C.ar      1 <0>        -0.0794
     11 C9          0.0414   -3.3089    1.5776 C.ar      1 <0>        -0.1290
     12 C10         0.0666   -1.5162    4.9032 C.3       1 <0>         0.1659
     13 N2         -1.3110   -1.4458    5.3967 N.am      1 <0>        -0.6904
     14 C11        -1.5477   -1.2318    6.7061 C.2       1 <0>         0.5107
     15 O1         -0.6196   -1.0974    7.4765 O.2       1 <0>        -0.5115
     16 C12        -2.9521   -1.1600    7.2092 C.2       1 <0>         0.5116
     17 O2         -3.8803   -1.2944    6.4388 O.2       1 <0>        -0.4916
     18 N3         -3.1887   -0.9460    8.5187 N.am      1 <0>        -0.6422
     19 C13        -4.5001   -0.7851    8.9746 C.ar      1 <0>         0.1637
     20 C14        -5.5355   -1.4956    8.3811 C.ar      1 <0>        -0.1027
     21 C15        -6.8310   -1.3341    8.8344 C.ar      1 <0>        -0.0132
     22 C16        -7.0973   -0.4651    9.8785 C.ar      1 <0>        -0.1084
     23 C17        -6.0690    0.2437   10.4714 C.ar      1 <0>        -0.0767
     24 C18        -4.7702    0.0822   10.0270 C.ar      1 <0>        -0.0581
     25 Cl1        -3.4788    0.9672   10.7771 Cl        1 <0>        -0.0476
     26 Cl2        -8.1259   -2.2216    8.0933 Cl        1 <0>        -0.0500
     27 C19         0.0087   -0.3689   -2.5075 C.3       1 <0>        -0.0955
     28 H2          1.0304    1.8236   -0.0030 H         1 <0>         0.0642
     29 H3         -0.5188    1.8153   -0.8796 H         1 <0>         0.0637
     30 H4         -0.5032    1.8114    0.9003 H         1 <0>         0.0633
     31 H5          0.0384    0.3088    2.9377 H         1 <0>         0.1243
     32 H6          0.0725   -3.8903    3.6268 H         1 <0>         0.1282
     33 H7          0.0465   -4.3249    1.2114 H         1 <0>         0.1233
     34 H8          0.5900   -2.3318    5.4022 H         1 <0>         0.0846
     35 H9          0.5760   -0.5756    5.1126 H         1 <0>         0.0837
     36 H10        -2.0528   -1.5532    4.7810 H         1 <0>         0.4157
     37 H11        -2.4489   -0.9036    9.1446 H         1 <0>         0.4285
     38 H12        -5.3284   -2.1733    7.5660 H         1 <0>         0.1608
     39 H13        -8.1107   -0.3401   10.2304 H         1 <0>         0.1478
     40 H14        -6.2802    0.9212   11.2856 H         1 <0>         0.1514
     41 H15         1.0343   -0.2459   -2.8555 H         1 <0>         0.0788
     42 H16        -0.5023   -1.1001   -3.1340 H         1 <0>         0.0685
     43 H17        -0.5120    0.5869   -2.5662 H         1 <0>         0.0864
@<TRIPOS>BOND
     1    1    2 1
     2    1   28 1
     3    1   29 1
     4    1   30 1
     5    2    7 1
     6    2    3 2
     7    3    4 1
     8    3   27 1
     9    4    5 1
    10    4    6 1
    11    6   11 ar
    12    6    7 ar
    13    7    8 ar
    14    8    9 ar
    15    8   31 1
    16    9   10 ar
    17    9   12 1
    18   10   11 ar
    19   10   32 1
    20   11   33 1
    21   12   13 1
    22   12   34 1
    23   12   35 1
    24   13   14 am
    25   13   36 1
    26   14   15 2
    27   14   16 1
    28   16   17 2
    29   16   18 am
    30   18   19 1
    31   18   37 1
    32   19   24 ar
    33   19   20 ar
    34   20   21 ar
    35   20   38 1
    36   21   22 ar
    37   21   26 1
    38   22   23 ar
    39   22   39 1
    40   23   24 ar
    41   23   40 1
    42   24   25 1
    43   27   41 1
    44   27   42 1
    45   27   43 1
@<TRIPOS>MOLECULE
ZINC08075893
   52    54     0     0     0
SMALL
USER_CHARGES
6-methyl-2-(2,4,5-trimethoxybenzoyl)amino-4,5,6,7-tetrahydrobenzothiophene-3-carboxamide
@<TRIPOS>ATOM
      1 C1         -8.3348    6.9148    0.1764 C.3       1 <0>        -0.1479
      2 C2         -6.8585    6.6219    0.4510 C.3       1 <0>        -0.0859
      3 H1         -6.6471    6.7719    1.5097 H         1 <0>         0.0755
      4 C3         -5.9821    7.5589   -0.3852 C.3       1 <0>        -0.1141
      5 C4         -4.5241    7.4459    0.0636 C.3       1 <0>        -0.0607
      6 C5         -4.1207    5.9765    0.0544 C.2       1 <0>        -0.0645
      7 C6         -5.0531    4.9993    0.0541 C.2       1 <0>        -0.2114
      8 S1         -4.1272    3.4904    0.0411 S.3       1 <0>         0.2348
      9 C7         -2.5235    4.1462    0.0365 C.2       1 <0>         0.0796
     10 C8         -2.7423    5.5168    0.0507 C.2       1 <0>        -0.2347
     11 C9         -1.6245    6.4652    0.0579 C.2       1 <0>         0.5853
     12 O1         -1.1629    6.8698   -0.9931 O.2       1 <0>        -0.5340
     13 N1         -1.1079    6.8890    1.2284 N.am      1 <0>        -0.8486
     14 N2         -1.3158    3.4672    0.0271 N.am      1 <0>        -0.6215
     15 C10        -1.3004    2.1196    0.0197 C.2       1 <0>         0.5627
     16 O2         -2.3467    1.4994    0.0213 O.2       1 <0>        -0.4759
     17 C11        -0.0169    1.3981    0.0097 C.ar      1 <0>        -0.1810
     18 C12         1.1886    2.1093    0.0020 C.ar      1 <0>        -0.1035
     19 C13         2.3880    1.4290   -0.0135 C.ar      1 <0>         0.0623
     20 C14         2.4022    0.0334   -0.0207 C.ar      1 <0>         0.1839
     21 C15         1.2124   -0.6769   -0.0132 C.ar      1 <0>        -0.2790
     22 C16         0.0021   -0.0041    0.0020 C.ar      1 <0>         0.2083
     23 O3         -1.1631   -0.7002    0.0099 O.3       1 <0>        -0.2765
     24 C17        -1.0671   -2.1259    0.0013 C.3       1 <0>         0.0187
     25 O4          3.5865   -0.6309   -0.0356 O.3       1 <0>        -0.2936
     26 C18         3.5293   -2.0588   -0.0427 C.3       1 <0>         0.0204
     27 O5          3.5602    2.1199   -0.0215 O.3       1 <0>        -0.3014
     28 C19         3.4727    3.5462   -0.0134 C.3       1 <0>         0.0217
     29 C20        -6.5409    5.1704    0.0633 C.3       1 <0>        -0.0303
     30 H2         -8.9550    6.2386    0.7649 H         1 <0>         0.0577
     31 H3         -8.5582    7.9454    0.4521 H         1 <0>         0.0581
     32 H4         -8.5431    6.7690   -0.8836 H         1 <0>         0.0571
     33 H5         -6.0595    7.2842   -1.4372 H         1 <0>         0.0675
     34 H6         -6.3218    8.5862   -0.2533 H         1 <0>         0.0702
     35 H7         -3.8864    8.0042   -0.6218 H         1 <0>         0.0751
     36 H8         -4.4200    7.8471    1.0717 H         1 <0>         0.0760
     37 H9         -1.4758    6.5666    2.0660 H         1 <0>         0.4038
     38 H10        -0.3683    7.5166    1.2331 H         1 <0>         0.4025
     39 H11        -0.4814    3.9618    0.0259 H         1 <0>         0.4141
     40 H12         1.1795    3.1892    0.0079 H         1 <0>         0.1420
     41 H13         1.2289   -1.7568   -0.0195 H         1 <0>         0.1533
     42 H14        -0.5388   -2.4491   -0.8958 H         1 <0>         0.0580
     43 H15        -0.5212   -2.4586    0.8841 H         1 <0>         0.0579
     44 H16        -2.0679   -2.5575    0.0089 H         1 <0>         0.1080
     45 H17         4.5416   -2.4629   -0.0545 H         1 <0>         0.1084
     46 H18         3.0099   -2.4061    0.8504 H         1 <0>         0.0600
     47 H19         2.9929   -2.3965   -0.9294 H         1 <0>         0.0601
     48 H20         2.9289    3.8818   -0.8965 H         1 <0>         0.0567
     49 H21         2.9463    3.8728    0.8834 H         1 <0>         0.0551
     50 H22         4.4761    3.9718   -0.0211 H         1 <0>         0.1063
     51 H23        -6.9409    4.9593   -0.9284 H         1 <0>         0.0828
     52 H24        -6.9842    4.4906    0.7910 H         1 <0>         0.0807
@<TRIPOS>BOND
     1    1    2 1
     2    1   30 1
     3    1   31 1
     4    1   32 1
     5    2    3 1
     6    2   29 1
     7    2    4 1
     8    4    5 1
     9    4   33 1
    10    4   34 1
    11    5    6 1
    12    5   35 1
    13    5   36 1
    14    6   10 1
    15    6    7 2
    16    7    8 1
    17    7   29 1
    18    8    9 1
    19    9   10 2
    20    9   14 1
    21   10   11 1
    22   11   12 2
    23   11   13 am
    24   13   37 1
    25   13   38 1
    26   14   15 am
    27   14   39 1
    28   15   16 2
    29   15   17 1
    30   17   22 ar
    31   17   18 ar
    32   18   19 ar
    33   18   40 1
    34   19   20 ar
    35   19   27 1
    36   20   21 ar
    37   20   25 1
    38   21   22 ar
    39   21   41 1
    40   22   23 1
    41   23   24 1
    42   24   42 1
    43   24   43 1
    44   24   44 1
    45   25   26 1
    46   26   45 1
    47   26   46 1
    48   26   47 1
    49   27   28 1
    50   28   48 1
    51   28   49 1
    52   28   50 1
    53   29   51 1
    54   29   52 1
@<TRIPOS>MOLECULE
ZINC12919108
   49    53     0     0     0
SMALL
USER_CHARGES
(7S)-2-[(1S)-1-[(5-amino-4-cyclopropyl-1,2,4-triazol-3-yl)sulfanyl]ethyl]-7-methyl-5,6,7,8-tetrahydro-3H-benzothiopheno[3,2-e]pyrimidin-4-one
@<TRIPOS>ATOM
      1 C1         -1.8327    3.6650   -0.5853 C.3       1 <0>        -0.1473
      2 C2         -1.4950    2.1803   -0.7349 C.3       1 <0>        -0.0870
      3 H1         -0.9555    1.8347    0.1469 H         1 <0>         0.0775
      4 C3         -2.7866    1.3732   -0.8962 C.3       1 <0>        -0.1177
      5 C4         -2.4807   -0.1213   -0.7965 C.3       1 <0>        -0.0597
      6 C5         -1.3672   -0.4650   -1.7824 C.2       1 <0>        -0.0509
      7 C6         -0.5682    0.5066   -2.2830 C.2       1 <0>        -0.1699
      8 S1          0.5607   -0.3326   -3.3659 S.3       1 <0>         0.1635
      9 C7         -0.0386   -1.9778   -3.1458 C.2       1 <0>         0.0862
     10 C8         -1.1036   -1.8202   -2.2314 C.2       1 <0>        -0.2463
     11 C9         -1.8108   -3.0077   -1.8435 C.2       1 <0>         0.5648
     12 O1         -2.7448   -2.9799   -1.0608 O.2       1 <0>        -0.5064
     13 N1         -1.3739   -4.1607   -2.4035 N.am      1 <0>        -0.6277
     14 H2         -1.8234   -4.9878   -2.1692 H         1 <0>         0.4204
     15 C10        -0.3383   -4.2132   -3.2753 C.2       1 <0>         0.4174
     16 N2          0.3334   -3.1484   -3.6547 N.2       1 <0>        -0.4509
     17 C11         0.0621   -5.5534   -3.8362 C.3       1 <0>        -0.0642
     18 H3         -0.7929   -6.2290   -3.8086 H         1 <0>         0.1287
     19 C12         1.2009   -6.1376   -2.9979 C.3       1 <0>        -0.1465
     20 S2          0.6166   -5.3498   -5.5513 S.3       1 <0>         0.0940
     21 C13         0.9032   -6.9978   -6.1051 C.2       1 <0>         0.1810
     22 N3          0.7430   -8.0882   -5.3954 N.2       1 <0>        -0.2980
     23 N4          1.0740   -9.1833   -6.2040 N.2       1 <0>        -0.3645
     24 C14         1.4333   -8.7260   -7.3781 C.2       1 <0>         0.4958
     25 N5          1.3375   -7.3636   -7.3484 N.pl3     1 <0>        -0.4753
     26 C15         1.6459   -6.4543   -8.4549 C.3       1 <0>         0.0445
     27 C16         1.8823   -4.9816   -8.1140 C.3       1 <0>        -0.1729
     28 C17         0.5935   -5.4063   -8.8224 C.3       1 <0>        -0.1741
     29 N6          1.8404   -9.4921   -8.4628 N.pl3     1 <0>        -0.8277
     30 C18        -0.6271    1.9728   -1.9844 C.3       1 <0>        -0.0331
     31 H4         -2.4611    3.8079    0.2937 H         1 <0>         0.0598
     32 H5         -0.9121    4.2372   -0.4707 H         1 <0>         0.0579
     33 H6         -2.3654    4.0077   -1.4724 H         1 <0>         0.0575
     34 H7         -3.2291    1.5883   -1.8689 H         1 <0>         0.0664
     35 H8         -3.4887    1.6524   -0.1105 H         1 <0>         0.0727
     36 H9         -2.1580   -0.3610    0.2167 H         1 <0>         0.0794
     37 H10        -3.3756   -0.6941   -1.0397 H         1 <0>         0.0866
     38 H11         0.8677   -6.2599   -1.9673 H         1 <0>         0.0719
     39 H12         1.4904   -7.1069   -3.4037 H         1 <0>         0.0942
     40 H13         2.0559   -5.4621   -3.0256 H         1 <0>         0.0793
     41 H14         2.2334   -6.8837   -9.2664 H         1 <0>         0.1458
     42 H15         1.8084   -4.6893   -7.0666 H         1 <0>         0.1203
     43 H16         2.6251   -4.4420   -8.7016 H         1 <0>         0.1220
     44 H17         0.4889   -5.1460   -9.8756 H         1 <0>         0.1161
     45 H18        -0.3285   -5.3937   -8.2412 H         1 <0>         0.1085
     46 H19         2.1612   -9.0591   -9.2693 H         1 <0>         0.4092
     47 H20         1.8039  -10.4602   -8.4138 H         1 <0>         0.4271
     48 H21         0.3786    2.3493   -1.7979 H         1 <0>         0.0843
     49 H22        -1.0651    2.5017   -2.8308 H         1 <0>         0.0872
@<TRIPOS>BOND
     1    1    2 1
     2    1   31 1
     3    1   32 1
     4    1   33 1
     5    2    3 1
     6    2   30 1
     7    2    4 1
     8    4    5 1
     9    4   34 1
    10    4   35 1
    11    5    6 1
    12    5   36 1
    13    5   37 1
    14    6   10 1
    15    6    7 2
    16    7    8 1
    17    7   30 1
    18    8    9 1
    19    9   16 1
    20    9   10 2
    21   10   11 1
    22   11   12 2
    23   11   13 am
    24   13   14 1
    25   13   15 1
    26   15   16 2
    27   15   17 1
    28   17   18 1
    29   17   19 1
    30   17   20 1
    31   19   38 1
    32   19   39 1
    33   19   40 1
    34   20   21 1
    35   21   25 1
    36   21   22 2
    37   22   23 1
    38   23   24 2
    39   24   25 1
    40   24   29 1
    41   25   26 1
    42   26   28 1
    43   26   27 1
    44   26   41 1
    45   27   28 1
    46   27   42 1
    47   27   43 1
    48   28   44 1
    49   28   45 1
    50   29   46 1
    51   29   47 1
    52   30   48 1
    53   30   49 1
@<TRIPOS>MOLECULE
ZINC06380905
   52    55     0     0     0
SMALL
USER_CHARGES
(4S)-6-amino-4-(3-benzyloxy-4-ethoxy-phenyl)-3-methyl-1,4-dihydropyrano[5,6-d]pyrazole-5-carbonitrile
@<TRIPOS>ATOM
      1 C1         -1.8684    6.6596    7.5230 C.3       1 <0>        -0.1539
      2 C2         -1.9458    5.8311    6.2391 C.3       1 <0>         0.0525
      3 O1         -1.5818    6.6464    5.1234 O.3       1 <0>        -0.3044
      4 C3         -1.5987    6.0582    3.8973 C.ar      1 <0>         0.1016
      5 C4         -1.9577    4.7259    3.7712 C.ar      1 <0>        -0.1719
      6 C5         -1.9739    4.1294    2.5242 C.ar      1 <0>        -0.0949
      7 C6         -1.6329    4.8595    1.4008 C.ar      1 <0>        -0.0679
      8 C7         -1.2687    6.1878    1.5203 C.ar      1 <0>        -0.1657
      9 C8         -1.2550    6.7930    2.7667 C.ar      1 <0>         0.1036
     10 O2         -0.9020    8.1010    2.8853 O.3       1 <0>        -0.2963
     11 C9         -0.5616    8.7927    1.6821 C.3       1 <0>         0.0982
     12 C10        -0.2004   10.2191    2.0077 C.ar      1 <0>        -0.0945
     13 C11        -1.1786   11.1959    2.0126 C.ar      1 <0>        -0.0951
     14 C12        -0.8480   12.5035    2.3156 C.ar      1 <0>        -0.1233
     15 C13         0.4622   12.8360    2.6048 C.ar      1 <0>        -0.1101
     16 C14         1.4413   11.8601    2.5948 C.ar      1 <0>        -0.1235
     17 C15         1.1100   10.5517    2.2960 C.ar      1 <0>        -0.0945
     18 C16        -1.6523    4.2043    0.0439 C.3       1 <0>         0.1275
     19 H1         -1.3618    4.9547   -0.7062 H         1 <0>         0.0922
     20 C17        -0.6910    3.0440    0.0258 C.2       1 <0>        -0.2643
     21 C18         0.6972    3.0524    0.0124 C.2       1 <0>         0.1186
     22 N1          1.1120    1.8078    0.0011 N.2       1 <0>        -0.2769
     23 N2         -0.0111    0.9658    0.0074 N.pl3     1 <0>        -0.4609
     24 H2          0.1203   -0.1263    0.0048 H         1 <0>         0.4782
     25 C19        -1.1068    1.7416    0.0161 C.2       1 <0>         0.2858
     26 O3         -2.4170    1.3913    0.0170 O.3       1 <0>        -0.2354
     27 C20        -3.3213    2.3549   -0.2515 C.2       1 <0>         0.4493
     28 C21        -3.0333    3.6753   -0.2612 C.2       1 <0>        -0.2722
     29 C22        -4.0779    4.6066   -0.5649 C.1       1 <0>         0.2746
     30 N3         -4.9065    5.3454   -0.8058 N.1       1 <0>        -0.4466
     31 N4         -4.6098    1.9724   -0.5310 N.pl3     1 <0>        -0.8573
     32 C23         1.5746    4.2776    0.0117 C.3       1 <0>        -0.0840
     33 H3         -2.1486    6.0320    8.3818 H         1 <0>         0.0783
     34 H4         -2.5594    7.5125    7.4512 H         1 <0>         0.0669
     35 H5         -0.8416    7.0300    7.6590 H         1 <0>         0.0672
     36 H6         -1.2548    4.9782    6.3109 H         1 <0>         0.0609
     37 H7         -2.9726    5.4607    6.1031 H         1 <0>         0.0603
     38 H8         -2.2245    4.1533    4.6472 H         1 <0>         0.1317
     39 H9         -2.2539    3.0908    2.4273 H         1 <0>         0.1163
     40 H10        -0.9988    6.7548    0.6416 H         1 <0>         0.1346
     41 H11         0.2964    8.2971    1.2045 H         1 <0>         0.0727
     42 H12        -1.4212    8.7796    0.9959 H         1 <0>         0.0709
     43 H13        -2.2016   10.9369    1.7830 H         1 <0>         0.1234
     44 H14        -1.6130   13.2659    2.3238 H         1 <0>         0.1248
     45 H15         0.7209   13.8581    2.8389 H         1 <0>         0.1239
     46 H16         2.4649   12.1198    2.8207 H         1 <0>         0.1251
     47 H17         1.8748    9.7893    2.2882 H         1 <0>         0.1243
     48 H18        -5.3729    2.7324   -0.7545 H         1 <0>         0.4520
     49 H19        -4.8791    0.9059   -0.5315 H         1 <0>         0.4327
     50 H20         2.6312    3.9719   -0.0005 H         1 <0>         0.0773
     51 H21         1.3752    4.8719    0.9156 H         1 <0>         0.0844
     52 H22         1.3578    4.8833   -0.8806 H         1 <0>         0.0836
@<TRIPOS>BOND
     1    1    2 1
     2    1   33 1
     3    1   34 1
     4    1   35 1
     5    2    3 1
     6    2   36 1
     7    2   37 1
     8    3    4 1
     9    4    9 ar
    10    4    5 ar
    11    5    6 ar
    12    5   38 1
    13    6    7 ar
    14    6   39 1
    15    7    8 ar
    16    7   18 1
    17    8    9 ar
    18    8   40 1
    19    9   10 1
    20   10   11 1
    21   11   12 1
    22   11   41 1
    23   11   42 1
    24   12   17 ar
    25   12   13 ar
    26   13   14 ar
    27   13   43 1
    28   14   15 ar
    29   14   44 1
    30   15   16 ar
    31   15   45 1
    32   16   17 ar
    33   16   46 1
    34   17   47 1
    35   18   19 1
    36   18   28 1
    37   18   20 1
    38   20   25 2
    39   20   21 1
    40   21   22 2
    41   21   32 1
    42   22   23 1
    43   23   24 1
    44   23   25 1
    45   25   26 1
    46   26   27 1
    47   27   28 2
    48   27   31 1
    49   28   29 1
    50   29   30 3
    51   31   48 1
    52   31   49 1
    53   32   50 1
    54   32   51 1
    55   32   52 1
@<TRIPOS>MOLECULE
ZINC32818934
   39    41     0     0     0
SMALL
USER_CHARGES
2-bromo-N-[4-[(4S)-4-methyl-2,5-dioxo-imidazolidin-4-yl]phenyl]benzenesulfonamide
@<TRIPOS>ATOM
      1 C1          4.8032    5.1851    0.6699 C.3       1 <0>        -0.1451
      2 C2          4.4974    4.4817   -0.6539 C.3       1 <0>         0.1523
      3 C3          5.7055    3.7066   -1.1413 C.2       1 <0>         0.5317
      4 O1          6.2606    2.7867   -0.5797 O.2       1 <0>        -0.4625
      5 N1          6.0348    4.2536   -2.3281 N.am      1 <0>        -0.6938
      6 C4          5.2112    5.2560   -2.6550 C.2       1 <0>         0.7229
      7 O2          5.3077    5.9030   -3.6794 O.2       1 <0>        -0.5423
      8 N2          4.2644    5.4679   -1.7232 N.am      1 <0>        -0.7304
      9 C5          3.3070    3.5696   -0.5053 C.ar      1 <0>        -0.1082
     10 C6          3.3204    2.5676    0.4476 C.ar      1 <0>        -0.0754
     11 C7          2.2314    1.7297    0.5862 C.ar      1 <0>        -0.1240
     12 C8          1.1216    1.8944   -0.2329 C.ar      1 <0>         0.1601
     13 C9          1.1136    2.8986   -1.1927 C.ar      1 <0>        -0.1512
     14 C10         2.2039    3.7363   -1.3224 C.ar      1 <0>        -0.0780
     15 N3          0.0187    1.0484   -0.0958 N.pl3     1 <0>        -1.0658
     16 S1         -1.5108    1.6819   -0.0567 S.o2      1 <0>         2.6855
     17 O3         -1.6370    2.5097   -1.2047 O.2       1 <0>        -0.9459
     18 O4         -2.3928    0.5981    0.2016 O.2       1 <0>        -0.9303
     19 C11        -1.5980    2.7470    1.3442 C.ar      1 <0>        -0.6556
     20 C12        -1.8037    4.1028    1.1701 C.ar      1 <0>        -0.0119
     21 C13        -1.8726    4.9384    2.2690 C.ar      1 <0>        -0.1231
     22 C14        -1.7362    4.4185    3.5429 C.ar      1 <0>        -0.0557
     23 C15        -1.5305    3.0632    3.7179 C.ar      1 <0>        -0.1089
     24 C16        -1.4663    2.2258    2.6185 C.ar      1 <0>        -0.0016
     25 Br1        -1.1919    0.3702    2.8577 Br        1 <0>        -0.0198
     26 H1          4.9738    4.4327    1.4540 H         1 <0>         0.0852
     27 H2          3.9518    5.8220    0.9519 H         1 <0>         0.0825
     28 H3          5.7038    5.8062    0.5556 H         1 <0>         0.0717
     29 H4          6.8925    3.8624   -2.8950 H         1 <0>         0.4652
     30 H5          3.4327    6.1830   -1.6402 H         1 <0>         0.4705
     31 H6          4.1837    2.4399    1.0840 H         1 <0>         0.1361
     32 H7          2.2426    0.9471    1.3304 H         1 <0>         0.1349
     33 H8          0.2542    3.0265   -1.8341 H         1 <0>         0.1577
     34 H9          2.1967    4.5199   -2.0656 H         1 <0>         0.1334
     35 H10         0.1661   -0.0386   -0.0138 H         1 <0>         0.4581
     36 H11        -1.9103    4.5094    0.1752 H         1 <0>         0.1526
     37 H12        -2.0333    5.9976    2.1326 H         1 <0>         0.1425
     38 H13        -1.7901    5.0717    4.4012 H         1 <0>         0.1428
     39 H14        -1.4236    2.6572    4.7130 H         1 <0>         0.1440
@<TRIPOS>BOND
     1    1    2 1
     2    1   26 1
     3    1   27 1
     4    1   28 1
     5    2    8 1
     6    2    3 1
     7    2    9 1
     8    3    4 2
     9    3    5 am
    10    5    6 am
    11    5   29 1
    12    6    7 2
    13    6    8 am
    14    8   30 1
    15    9   14 ar
    16    9   10 ar
    17   10   11 ar
    18   10   31 1
    19   11   12 ar
    20   11   32 1
    21   12   13 ar
    22   12   15 1
    23   13   14 ar
    24   13   33 1
    25   14   34 1
    26   15   16 1
    27   15   35 1
    28   16   17 2
    29   16   18 2
    30   16   19 1
    31   19   24 ar
    32   19   20 ar
    33   20   21 ar
    34   20   36 1
    35   21   22 ar
    36   21   37 1
    37   22   23 ar
    38   22   38 1
    39   23   24 ar
    40   23   39 1
    41   24   25 1
@<TRIPOS>MOLECULE
ZINC08486534
   42    44     0     0     0
SMALL
USER_CHARGES

@<TRIPOS>ATOM
      1 C1         -0.7505    1.3987   -0.0607 C.3       1 <0>        -0.0851
      2 C2         -0.3325   -0.0485   -0.0168 C.2       1 <0>        -0.0988
      3 C3          0.2207   -0.7534   -1.0170 C.2       1 <0>         0.0435
      4 N1          0.4583   -2.0348   -0.5908 N.pl3     1 <0>        -0.3881
      5 C4          0.0590   -2.1786    0.7018 C.2       1 <0>         0.3224
      6 C5         -0.4455   -0.9587    1.1299 C.2       1 <0>        -0.1174
      7 C6         -0.9722   -0.6510    2.4255 C.1       1 <0>         0.2867
      8 N2         -1.3901   -0.4069    3.4533 N.1       1 <0>        -0.4256
      9 N3          0.1465   -3.3372    1.4594 N.am      1 <0>        -0.6486
     10 C7         -0.3243   -4.5006    0.9682 C.2       1 <0>         0.5387
     11 O1         -0.7235   -4.5587   -0.1755 O.2       1 <0>        -0.4870
     12 C8         -0.3547   -5.7293    1.8402 C.3       1 <0>        -0.1603
     13 S1         -1.0368   -7.1220    0.8991 S.3       1 <0>         0.1324
     14 C9         -1.0063   -8.4637    2.0409 C.2       1 <0>         0.0216
     15 N4         -0.5974   -8.4851    3.2949 N.2       1 <0>        -0.2741
     16 N5         -0.6621   -9.6551    4.0158 N.2       1 <0>        -0.3744
     17 C10        -1.1324  -10.7494    3.4503 C.2       1 <0>         0.3535
     18 S2         -1.5282  -10.1567    1.8123 S.3       1 <0>         0.0089
     19 N6         -1.2847  -12.0225    3.9869 N.pl3     1 <0>        -0.7879
     20 C11         1.0285   -3.0486   -1.3728 C.ar      1 <0>         0.1462
     21 C12         0.3340   -3.5618   -2.4604 C.ar      1 <0>        -0.0821
     22 C13         0.8974   -4.5604   -3.2303 C.ar      1 <0>        -0.0762
     23 C14         2.1523   -5.0507   -2.9196 C.ar      1 <0>        -0.1384
     24 C15         2.8482   -4.5417   -1.8358 C.ar      1 <0>         0.1098
     25 C16         2.2904   -3.5372   -1.0650 C.ar      1 <0>        -0.1520
     26 F1          4.0743   -5.0225   -1.5343 F         1 <0>        -0.1325
     27 C17         0.5315   -0.2200   -2.3917 C.3       1 <0>        -0.0895
     28 H1          0.0858    2.0279    0.2439 H         1 <0>         0.0726
     29 H2         -1.0506    1.6596   -1.0756 H         1 <0>         0.0730
     30 H3         -1.5891    1.5554    0.6178 H         1 <0>         0.0667
     31 H4          0.5465   -3.3101    2.3426 H         1 <0>         0.4273
     32 H5          0.6580   -5.9705    2.1635 H         1 <0>         0.1328
     33 H6         -0.9794   -5.5400    2.7132 H         1 <0>         0.1352
     34 H7         -1.0263  -12.1957    4.9057 H         1 <0>         0.4236
     35 H8         -1.6495  -12.7378    3.4427 H         1 <0>         0.4241
     36 H9         -0.6466   -3.1803   -2.7039 H         1 <0>         0.1370
     37 H10         0.3569   -4.9592   -4.0760 H         1 <0>         0.1440
     38 H11         2.5904   -5.8322   -3.5228 H         1 <0>         0.1429
     39 H12         2.8344   -3.1370   -0.2222 H         1 <0>         0.1379
     40 H13         1.5421    0.1882   -2.4032 H         1 <0>         0.0786
     41 H14         0.4576   -1.0275   -3.1201 H         1 <0>         0.0697
     42 H15        -0.1804    0.5652   -2.6463 H         1 <0>         0.0890
@<TRIPOS>BOND
     1    1    2 1
     2    1   28 1
     3    1   29 1
     4    1   30 1
     5    2    6 1
     6    2    3 2
     7    3    4 1
     8    3   27 1
     9    4    5 1
    10    4   20 1
    11    5    6 2
    12    5    9 1
    13    6    7 1
    14    7    8 3
    15    9   10 am
    16    9   31 1
    17   10   11 2
    18   10   12 1
    19   12   13 1
    20   12   32 1
    21   12   33 1
    22   13   14 1
    23   14   18 1
    24   14   15 2
    25   15   16 1
    26   16   17 2
    27   17   18 1
    28   17   19 1
    29   19   34 1
    30   19   35 1
    31   20   25 ar
    32   20   21 ar
    33   21   22 ar
    34   21   36 1
    35   22   23 ar
    36   22   37 1
    37   23   24 ar
    38   23   38 1
    39   24   25 ar
    40   24   26 1
    41   25   39 1
    42   27   40 1
    43   27   41 1
    44   27   42 1
@<TRIPOS>MOLECULE
ZINC00814416
   38    41     0     0     0
SMALL
USER_CHARGES
4-(2-naphthylsulfonyl)-1,3-dihydroquinoxalin-2-one
@<TRIPOS>ATOM
      1 C1          0.0100    1.0722    0.0298 C.ar      1 <0>        -0.0904
      2 C2         -1.2141    1.7379    0.0605 C.ar      1 <0>        -0.1194
      3 C3         -1.2722    3.0975    0.0731 C.ar      1 <0>        -0.0900
      4 C4         -0.0822    3.8446    0.0446 C.ar      1 <0>        -0.0786
      5 C5         -0.1023    5.2498    0.0514 C.ar      1 <0>         0.0211
      6 C6          1.0701    5.9402    0.0227 C.ar      1 <0>        -0.6733
      7 C7          2.2941    5.2746   -0.0129 C.ar      1 <0>        -0.0487
      8 C8          2.3524    3.9149   -0.0213 C.ar      1 <0>        -0.1103
      9 C9          1.1624    3.1678    0.0080 C.ar      1 <0>        -0.0101
     10 C10         1.1825    1.7626    0.0012 C.ar      1 <0>        -0.1192
     11 S1          1.0402    7.7019    0.0312 S.o2      1 <0>         2.6845
     12 O1          2.3171    8.1320   -0.4203 O.2       1 <0>        -0.9294
     13 O2         -0.1658    8.0908   -0.6117 O.2       1 <0>        -0.9372
     14 N1          0.9105    8.1818    1.6109 N.pl3     1 <0>        -0.9409
     15 C11        -0.4011    8.2800    2.2685 C.3       1 <0>         0.0951
     16 C12        -0.4411    9.5359    3.1010 C.2       1 <0>         0.5188
     17 O3         -1.5005   10.0949    3.2918 O.2       1 <0>        -0.5085
     18 N2          0.6851   10.0445    3.6358 N.am      1 <0>        -0.6553
     19 C13         1.9269    9.4466    3.3897 C.ar      1 <0>         0.1358
     20 C14         2.0480    8.5016    2.3653 C.ar      1 <0>         0.1255
     21 C15         3.2695    7.9125    2.1054 C.ar      1 <0>        -0.1128
     22 C16         4.3728    8.2509    2.8697 C.ar      1 <0>        -0.1062
     23 C17         4.2549    9.1784    3.8879 C.ar      1 <0>        -0.0993
     24 C18         3.0358    9.7775    4.1505 C.ar      1 <0>        -0.1271
     25 H1          0.0283   -0.0076    0.0242 H         1 <0>         0.1303
     26 H2         -2.1302    1.1661    0.0783 H         1 <0>         0.1307
     27 H3         -2.2279    3.5998    0.1011 H         1 <0>         0.1353
     28 H4         -1.0434    5.7791    0.0795 H         1 <0>         0.1455
     29 H5          3.2101    5.8464   -0.0344 H         1 <0>         0.1421
     30 H6          3.3081    3.4127   -0.0493 H         1 <0>         0.1398
     31 H7          2.1235    1.2333   -0.0269 H         1 <0>         0.1345
     32 H8         -1.1858    8.3182    1.5130 H         1 <0>         0.1406
     33 H9         -0.5531    7.4122    2.9103 H         1 <0>         0.1159
     34 H10         0.6355   10.8334    4.1979 H         1 <0>         0.4175
     35 H11         3.3624    7.1876    1.3102 H         1 <0>         0.1353
     36 H12         5.3283    7.7887    2.6702 H         1 <0>         0.1366
     37 H13         5.1191    9.4366    4.4818 H         1 <0>         0.1353
     38 H14         2.9492   10.5018    4.9469 H         1 <0>         0.1367
@<TRIPOS>BOND
     1    1   10 ar
     2    1    2 ar
     3    1   25 1
     4    2    3 ar
     5    2   26 1
     6    3    4 ar
     7    3   27 1
     8    4    9 ar
     9    4    5 ar
    10    5    6 ar
    11    5   28 1
    12    6    7 ar
    13    6   11 1
    14    7    8 ar
    15    7   29 1
    16    8    9 ar
    17    8   30 1
    18    9   10 ar
    19   10   31 1
    20   11   12 2
    21   11   13 2
    22   11   14 1
    23   14   20 1
    24   14   15 1
    25   15   16 1
    26   15   32 1
    27   15   33 1
    28   16   17 2
    29   16   18 am
    30   18   19 1
    31   18   34 1
    32   19   24 ar
    33   19   20 ar
    34   20   21 ar
    35   21   22 ar
    36   21   35 1
    37   22   23 ar
    38   22   36 1
    39   23   24 ar
    40   23   37 1
    41   24   38 1
@<TRIPOS>MOLECULE
ZINC37669548
   28    29     0     0     0
SMALL
USER_CHARGES

@<TRIPOS>ATOM
      1 C1         -0.0653    1.2299   -0.2469 C.ar      1 <0>        -0.1304
      2 C2          0.8106    1.4276   -1.2993 C.ar      1 <0>        -0.0230
      3 C3          2.0978    0.9364   -1.2317 C.ar      1 <0>        -0.0236
      4 C4          2.5175    0.2377   -0.0982 C.ar      1 <0>        -0.0399
      5 C5          1.6308    0.0405    0.9610 C.ar      1 <0>        -0.1247
      6 C6          0.3436    0.5376    0.8815 C.ar      1 <0>         0.1574
      7 F1         -0.5171    0.3482    1.9055 F         1 <0>        -0.1114
      8 C7          3.8956   -0.2914   -0.0206 C.2       1 <0>         0.5594
      9 O1          4.8426    0.4533   -0.1832 O.2       1 <0>        -0.4600
     10 N1          4.1021   -1.5993    0.2305 N.am      1 <0>        -0.6602
     11 C8          5.4029   -2.0796    0.4117 C.ar      1 <0>         0.1751
     12 C9          5.7392   -3.3565   -0.0186 C.ar      1 <0>        -0.1290
     13 C10         7.0259   -3.8287    0.1614 C.ar      1 <0>        -0.0033
     14 C11         7.9784   -3.0304    0.7701 C.ar      1 <0>        -0.1137
     15 C12         7.6459   -1.7576    1.1998 C.ar      1 <0>        -0.0026
     16 C13         6.3623   -1.2785    1.0171 C.ar      1 <0>        -0.1077
     17 Cl1         8.8437   -0.7597    1.9634 Cl        1 <0>        -0.0455
     18 Cl2         7.4471   -5.4247   -0.3762 Cl        1 <0>        -0.0467
     19 N2          3.0325    1.1492   -2.3595 N.pl3     1 <0>         0.0255
     20 O2          2.7091    1.8524   -3.2882 O.2       1 <0>        -0.1492
     21 O3          4.1194    0.6197   -2.3520 O.3       1 <0>        -0.1207
     22 H1         -1.0706    1.6206   -0.3032 H         1 <0>         0.1692
     23 H2          0.4857    1.9678   -2.1762 H         1 <0>         0.1739
     24 H3          1.9493   -0.4994    1.8405 H         1 <0>         0.1676
     25 H4          3.3485   -2.2075    0.2854 H         1 <0>         0.4177
     26 H5          4.9961   -3.9802   -0.4930 H         1 <0>         0.1454
     27 H6          8.9829   -3.4014    0.9103 H         1 <0>         0.1486
     28 H7          6.1045   -0.2834    1.3486 H         1 <0>         0.1515
@<TRIPOS>BOND
     1    1    6 ar
     2    1    2 ar
     3    1   22 1
     4    2    3 ar
     5    2   23 1
     6    3    4 ar
     7    3   19 1
     8    4    5 ar
     9    4    8 1
    10    5    6 ar
    11    5   24 1
    12    6    7 1
    13    8    9 2
    14    8   10 am
    15   10   11 1
    16   10   25 1
    17   11   16 ar
    18   11   12 ar
    19   12   13 ar
    20   12   26 1
    21   13   14 ar
    22   13   18 1
    23   14   15 ar
    24   14   27 1
    25   15   16 ar
    26   15   17 1
    27   16   28 1
    28   19   20 2
    29   19   21 1
@<TRIPOS>MOLECULE
ZINC49544368
   37    40     0     0     0
SMALL
USER_CHARGES

@<TRIPOS>ATOM
      1 C1         -0.0178    1.4608    0.0101 C.3       1 <0>         0.0933
      2 N1          0.0021   -0.0041    0.0020 N.pl3     1 <0>        -0.3686
      3 C2          0.0079   -0.7881   -1.0852 C.2       1 <0>         0.3325
      4 C3          0.0255   -2.0906   -0.6594 C.2       1 <0>        -0.2874
      5 C4          0.0333   -2.0865    0.7272 C.2       1 <0>         0.0947
      6 N2          0.0246   -0.8378    1.1320 N.2       1 <0>        -0.2886
      7 C5          0.0308   -3.2508   -1.6210 C.3       1 <0>         0.0836
      8 H1         -0.4917   -4.0981   -1.1770 H         1 <0>         0.1300
      9 C6         -0.6854   -2.8175   -2.9036 C.3       1 <0>        -0.1368
     10 C7         -0.2632   -1.4413   -3.3303 C.2       1 <0>         0.5399
     11 O1         -0.1560   -1.2027   -4.5146 O.2       1 <0>        -0.5071
     12 N3          0.0015   -0.4599   -2.4411 N.am      1 <0>        -0.6453
     13 C8          1.4515   -3.6404   -1.9388 C.2       1 <0>         0.0047
     14 C9          2.0052   -4.8469   -1.7091 C.2       1 <0>        -0.1988
     15 C10         3.3408   -4.7796   -2.1542 C.2       1 <0>        -0.1740
     16 C11         3.5302   -3.5224   -2.6358 C.2       1 <0>         0.0144
     17 O2          2.3743   -2.8441   -2.5034 O.3       1 <0>        -0.1499
     18 C12         4.7851   -2.9937   -3.2101 C.ar      1 <0>        -0.0053
     19 C13         5.9908   -3.1512   -2.5244 C.ar      1 <0>        -0.0699
     20 C14         7.1587   -2.6560   -3.0656 C.ar      1 <0>        -0.1047
     21 C15         7.1377   -2.0030   -4.2868 C.ar      1 <0>        -0.0170
     22 C16         5.9458   -1.8431   -4.9724 C.ar      1 <0>        -0.1035
     23 C17         4.7705   -2.3393   -4.4441 C.ar      1 <0>        -0.0125
     24 Cl1         3.2775   -2.1446   -5.3082 Cl        1 <0>        -0.0297
     25 Cl2         8.6122   -1.3818   -4.9602 Cl        1 <0>        -0.0501
     26 H2          1.0048    1.8381    0.0023 H         1 <0>         0.0800
     27 H3         -0.5450    1.8219   -0.8730 H         1 <0>         0.0846
     28 H4         -0.5280    1.8123    0.9069 H         1 <0>         0.1003
     29 H5          0.0480   -2.9590    1.3635 H         1 <0>         0.1919
     30 H6         -0.4510   -3.5249   -3.6990 H         1 <0>         0.1161
     31 H7         -1.7615   -2.8223   -2.7298 H         1 <0>         0.1176
     32 H8          0.1821    0.4463   -2.7364 H         1 <0>         0.4132
     33 H9          1.5178   -5.7036   -1.2676 H         1 <0>         0.1549
     34 H10         4.0726   -5.5731   -2.1188 H         1 <0>         0.1521
     35 H11         6.0089   -3.6596   -1.5717 H         1 <0>         0.1486
     36 H12         8.0919   -2.7775   -2.5357 H         1 <0>         0.1477
     37 H13         5.9358   -1.3329   -5.9243 H         1 <0>         0.1492
@<TRIPOS>BOND
     1    1    2 1
     2    1   26 1
     3    1   27 1
     4    1   28 1
     5    2    6 1
     6    2    3 1
     7    3   12 1
     8    3    4 2
     9    4    5 1
    10    4    7 1
    11    5    6 2
    12    5   29 1
    13    7    8 1
    14    7    9 1
    15    7   13 1
    16    9   10 1
    17    9   30 1
    18    9   31 1
    19   10   11 2
    20   10   12 am
    21   12   32 1
    22   13   17 1
    23   13   14 2
    24   14   15 1
    25   14   33 1
    26   15   16 2
    27   15   34 1
    28   16   17 1
    29   16   18 1
    30   18   23 ar
    31   18   19 ar
    32   19   20 ar
    33   19   35 1
    34   20   21 ar
    35   20   36 1
    36   21   22 ar
    37   21   25 1
    38   22   23 ar
    39   22   37 1
    40   23   24 1
@<TRIPOS>MOLECULE
ZINC00222331
   36    39     0     0     0
SMALL
USER_CHARGES

@<TRIPOS>ATOM
      1 C1         -0.0167    1.3782    0.0096 C.ar      1 <0>        -0.0864
      2 C2          1.1706    2.0858    0.0021 C.ar      1 <0>        -0.1063
      3 C3          2.3780    1.4104   -0.0130 C.ar      1 <0>        -0.0256
      4 C4          2.3961    0.0270   -0.0206 C.ar      1 <0>        -0.1061
      5 C5          1.2082   -0.6795   -0.0130 C.ar      1 <0>        -0.0915
      6 C6          0.0021   -0.0041    0.0020 C.ar      1 <0>        -0.0996
      7 C7         -1.2928   -0.7750    0.0107 C.3       1 <0>         0.1971
      8 H1         -2.0971   -0.1348    0.3733 H         1 <0>         0.0951
      9 C8         -1.6164   -1.2527   -1.4094 C.3       1 <0>        -0.1439
     10 C9         -2.9613   -1.9911   -1.4149 C.3       1 <0>         0.2041
     11 H2         -3.7706   -1.2773   -1.2608 H         1 <0>         0.1127
     12 N1         -2.9625   -2.9733   -0.3343 N.pl3     1 <0>        -0.4110
     13 C10        -2.1187   -2.9464    0.7283 C.2       1 <0>         0.4934
     14 N2         -2.4064   -3.9725    1.4785 N.2       1 <0>        -0.3630
     15 N3         -3.3772   -4.6448    0.9618 N.2       1 <0>        -0.0249
     16 N4         -3.7679   -4.0960   -0.1427 N.2       1 <0>        -0.0726
     17 N5         -1.1621   -1.9527    0.8910 N.pl3     1 <0>        -0.6945
     18 C11        -3.1486   -2.6898   -2.7369 C.ar      1 <0>        -0.1001
     19 C12        -2.2443   -3.6530   -3.1436 C.ar      1 <0>        -0.0784
     20 C13        -2.4156   -4.2941   -4.3560 C.ar      1 <0>        -0.1077
     21 C14        -3.4925   -3.9717   -5.1626 C.ar      1 <0>        -0.0205
     22 C15        -4.3972   -3.0077   -4.7550 C.ar      1 <0>        -0.1080
     23 C16        -4.2279   -2.3712   -3.5399 C.ar      1 <0>        -0.0786
     24 Cl1        -3.7080   -4.7762   -6.6858 Cl        1 <0>        -0.0607
     25 Cl2         3.8696    2.2984   -0.0231 Cl        1 <0>        -0.0603
     26 H3         -0.9592    1.9053    0.0259 H         1 <0>         0.1383
     27 H4          1.1558    3.1656    0.0076 H         1 <0>         0.1397
     28 H5          3.3383   -0.5007   -0.0327 H         1 <0>         0.1385
     29 H6          1.2222   -1.7594   -0.0193 H         1 <0>         0.1346
     30 H7         -1.6722   -0.3930   -2.0771 H         1 <0>         0.1196
     31 H8         -0.8315   -1.9267   -1.7527 H         1 <0>         0.0935
     32 H9         -0.4477   -2.0291    1.5427 H         1 <0>         0.4326
     33 H10        -1.4035   -3.9043   -2.5141 H         1 <0>         0.1250
     34 H11        -1.7088   -5.0464   -4.6738 H         1 <0>         0.1375
     35 H12        -5.2378   -2.7554   -5.3844 H         1 <0>         0.1402
     36 H13        -4.9368   -1.6220   -3.2194 H         1 <0>         0.1377
@<TRIPOS>BOND
     1    1    6 ar
     2    1    2 ar
     3    1   26 1
     4    2    3 ar
     5    2   27 1
     6    3    4 ar
     7    3   25 1
     8    4    5 ar
     9    4   28 1
    10    5    6 ar
    11    5   29 1
    12    6    7 1
    13    7    8 1
    14    7   17 1
    15    7    9 1
    16    9   10 1
    17    9   30 1
    18    9   31 1
    19   10   11 1
    20   10   12 1
    21   10   18 1
    22   12   16 1
    23   12   13 1
    24   13   14 2
    25   13   17 1
    26   14   15 1
    27   15   16 2
    28   17   32 1
    29   18   23 ar
    30   18   19 ar
    31   19   20 ar
    32   19   33 1
    33   20   21 ar
    34   20   34 1
    35   21   22 ar
    36   21   24 1
    37   22   23 ar
    38   22   35 1
    39   23   36 1
@<TRIPOS>MOLECULE
ZINC63786390
   38    41     0     0     0
SMALL
USER_CHARGES

@<TRIPOS>ATOM
      1 C1         -0.1273    1.5610   -0.3809 C.3       1 <0>        -0.1147
      2 C2         -0.0712    0.0551   -0.3904 C.2       1 <0>         0.0180
      3 C3         -1.1075   -0.7466   -0.1224 C.2       1 <0>        -0.1587
      4 C4         -2.4936   -0.3385    0.2102 C.3       1 <0>         0.0751
      5 H1         -2.8015   -0.8441    1.1255 H         1 <0>         0.1379
      6 S1         -3.6576   -0.7497   -1.1065 S.3       1 <0>        -0.1490
      7 C5         -3.7305   -2.5496   -1.1445 C.3       1 <0>        -0.1113
      8 C6         -2.4289   -3.1542   -1.5321 C.2       1 <0>         0.5239
      9 O1         -2.5595   -4.0606   -2.3274 O.2       1 <0>        -0.5506
     10 N1         -1.2050   -2.9467   -1.2277 N.am      1 <0>        -0.6635
     11 C7         -0.5370   -2.1357   -0.2531 C.3       1 <0>         0.2023
     12 H2         -0.5645   -2.6335    0.7162 H         1 <0>         0.1479
     13 N2          0.8675   -1.8941   -0.6226 N.2       1 <0>        -0.1433
     14 N3          1.0322   -0.6718   -0.6768 N.2       1 <0>        -0.1227
     15 C8         -2.5236    1.1505    0.4403 C.2       1 <0>         0.0064
     16 C9         -2.4107    1.7632    1.6349 C.2       1 <0>        -0.1722
     17 C10        -2.4901    3.1500    1.3966 C.2       1 <0>        -0.1844
     18 C11        -2.6488    3.3086    0.0558 C.2       1 <0>         0.0456
     19 O2         -2.6615    2.0874   -0.5122 O.3       1 <0>        -0.1530
     20 C12        -2.7785    4.5974   -0.6558 C.ar      1 <0>        -0.0187
     21 C13        -2.7370    5.7979    0.0554 C.ar      1 <0>        -0.0814
     22 C14        -2.8581    6.9976   -0.6143 C.ar      1 <0>        -0.1057
     23 C15        -3.0211    7.0127   -1.9894 C.ar      1 <0>        -0.0260
     24 C16        -3.0630    5.8252   -2.7004 C.ar      1 <0>        -0.1060
     25 C17        -2.9372    4.6194   -2.0425 C.ar      1 <0>        -0.0860
     26 Cl1        -3.1739    8.5266   -2.8251 Cl        1 <0>        -0.0606
     27 H3          0.8681    1.9628   -0.5701 H         1 <0>         0.0845
     28 H4         -0.8112    1.9041   -1.1572 H         1 <0>         0.0949
     29 H5         -0.4792    1.9053    0.5916 H         1 <0>         0.0941
     30 H6         -4.0094   -2.9136   -0.1557 H         1 <0>         0.1218
     31 H7         -4.4916   -2.8581   -1.8612 H         1 <0>         0.1603
     32 H8         -0.5894   -3.4525   -1.7809 H         1 <0>         0.4152
     33 H9         -2.2839    1.2826    2.5937 H         1 <0>         0.1582
     34 H10        -2.4361    3.9351    2.1364 H         1 <0>         0.1596
     35 H11        -2.6106    5.7873    1.1280 H         1 <0>         0.1401
     36 H12        -2.8261    7.9270   -0.0652 H         1 <0>         0.1423
     37 H13        -3.1904    5.8434   -3.7727 H         1 <0>         0.1405
     38 H14        -2.9656    3.6940   -2.5987 H         1 <0>         0.1389
@<TRIPOS>BOND
     1    1    2 1
     2    1   27 1
     3    1   28 1
     4    1   29 1
     5    2   14 1
     6    2    3 2
     7    3   11 1
     8    3    4 1
     9    4    5 1
    10    4    6 1
    11    4   15 1
    12    6    7 1
    13    7    8 1
    14    7   30 1
    15    7   31 1
    16    8    9 2
    17    8   10 am
    18   10   11 1
    19   10   32 1
    20   11   12 1
    21   11   13 1
    22   13   14 2
    23   15   19 1
    24   15   16 2
    25   16   17 1
    26   16   33 1
    27   17   18 2
    28   17   34 1
    29   18   19 1
    30   18   20 1
    31   20   25 ar
    32   20   21 ar
    33   21   22 ar
    34   21   35 1
    35   22   23 ar
    36   22   36 1
    37   23   24 ar
    38   23   26 1
    39   24   25 ar
    40   24   37 1
    41   25   38 1
@<TRIPOS>MOLECULE
ZINC04513656
   52    54     0     0     0
SMALL
USER_CHARGES
2-(2,4-dimethylphenyl)-8-(1,2-dimethylpropyl)-5-methyl-3,5,8-triazabicyclo[4.3.0]non-10-ene-4,9-dione
@<TRIPOS>ATOM
      1 C1         -7.2391    6.4097    1.0864 C.3       1 <0>        -0.1163
      2 C2         -5.7834    6.6301    0.7646 C.ar      1 <0>        -0.0749
      3 C3         -5.2147    6.0038   -0.3289 C.ar      1 <0>        -0.1259
      4 C4         -3.8811    6.2105   -0.6274 C.ar      1 <0>        -0.0765
      5 C5         -3.1132    7.0351    0.1737 C.ar      1 <0>        -0.1070
      6 C6         -3.6817    7.6612    1.2669 C.ar      1 <0>        -0.0689
      7 C7         -5.0170    7.4586    1.5624 C.ar      1 <0>        -0.1213
      8 C8         -2.8462    8.5649    2.1365 C.3       1 <0>        -0.1235
      9 C9         -1.6578    7.2563   -0.1487 C.3       1 <0>         0.2533
     10 H1         -1.0929    7.1607    0.7786 H         1 <0>         0.0922
     11 C10        -1.2128    6.1495   -1.0832 C.2       1 <0>        -0.2786
     12 C11        -0.7115    6.5058   -2.2832 C.2       1 <0>         0.1673
     13 C12        -0.3548    5.2197   -2.9943 C.3       1 <0>         0.1411
     14 N1         -0.7178    4.1525   -2.0501 N.am      1 <0>        -0.6156
     15 C13        -1.2196    4.7457   -0.9518 C.2       1 <0>         0.5788
     16 O1         -1.6238    4.1483    0.0290 O.2       1 <0>        -0.5161
     17 C14        -0.5669    2.7115   -2.2674 C.3       1 <0>         0.1782
     18 H2         -0.1365    2.5359   -3.2532 H         1 <0>         0.0915
     19 C15        -1.9374    2.0366   -2.1816 C.3       1 <0>        -0.1720
     20 C16         0.3568    2.1282   -1.1962 C.3       1 <0>        -0.1132
     21 C17         0.5143    0.6233   -1.4231 C.3       1 <0>        -0.1466
     22 C18         1.7272    2.8031   -1.2820 C.3       1 <0>        -0.1438
     23 N2         -0.6076    7.8185   -2.6454 N.am      1 <0>        -0.5274
     24 C19        -0.9853    8.8358   -1.8603 C.2       1 <0>         0.7113
     25 O2         -0.8547    9.9735   -2.2681 O.2       1 <0>        -0.5590
     26 N3         -1.5047    8.6388   -0.6324 N.am      1 <0>        -0.7095
     27 C20        -0.0529    8.1310   -3.9648 C.3       1 <0>         0.0725
     28 H3         -7.8421    7.1587    0.5732 H         1 <0>         0.0708
     29 H4         -7.5375    5.4146    0.7566 H         1 <0>         0.0667
     30 H5         -7.3905    6.4964    2.1624 H         1 <0>         0.0671
     31 H6         -5.8137    5.3567   -0.9526 H         1 <0>         0.1198
     32 H7         -3.4380    5.7248   -1.4842 H         1 <0>         0.1140
     33 H8         -5.4614    7.9481    2.4165 H         1 <0>         0.1230
     34 H9         -2.8195    9.5642    1.7019 H         1 <0>         0.0700
     35 H10        -3.2824    8.6141    3.1342 H         1 <0>         0.0724
     36 H11        -1.8323    8.1702    2.2023 H         1 <0>         0.0699
     37 H12         0.7134    5.1889   -3.2089 H         1 <0>         0.1103
     38 H13        -0.9289    5.1222   -3.9157 H         1 <0>         0.1103
     39 H14        -2.5954    2.4522   -2.9447 H         1 <0>         0.0568
     40 H15        -1.8251    0.9645   -2.3433 H         1 <0>         0.0743
     41 H16        -2.3678    2.2123   -1.1957 H         1 <0>         0.0745
     42 H17        -0.0737    2.3039   -0.2103 H         1 <0>         0.0883
     43 H18         1.1724    0.2077   -0.6600 H         1 <0>         0.0594
     44 H19        -0.4620    0.1425   -1.3620 H         1 <0>         0.0609
     45 H20         0.9448    0.4476   -2.4090 H         1 <0>         0.0554
     46 H21         1.6150    3.8752   -1.1203 H         1 <0>         0.0512
     47 H22         2.3853    2.3875   -0.5189 H         1 <0>         0.0567
     48 H23         2.1577    2.6274   -2.2679 H         1 <0>         0.0530
     49 H24        -1.7719    9.3902   -0.0801 H         1 <0>         0.4320
     50 H25        -0.8589    8.1713   -4.6975 H         1 <0>         0.0735
     51 H26         0.4525    9.0960   -3.9272 H         1 <0>         0.0970
     52 H27         0.6604    7.3582   -4.2514 H         1 <0>         0.0831
@<TRIPOS>BOND
     1    1    2 1
     2    1   28 1
     3    1   29 1
     4    1   30 1
     5    2    7 ar
     6    2    3 ar
     7    3    4 ar
     8    3   31 1
     9    4    5 ar
    10    4   32 1
    11    5    6 ar
    12    5    9 1
    13    6    7 ar
    14    6    8 1
    15    7   33 1
    16    8   34 1
    17    8   35 1
    18    8   36 1
    19    9   10 1
    20    9   26 1
    21    9   11 1
    22   11   15 1
    23   11   12 2
    24   12   13 1
    25   12   23 1
    26   13   14 1
    27   13   37 1
    28   13   38 1
    29   14   15 am
    30   14   17 1
    31   15   16 2
    32   17   18 1
    33   17   19 1
    34   17   20 1
    35   19   39 1
    36   19   40 1
    37   19   41 1
    38   20   21 1
    39   20   22 1
    40   20   42 1
    41   21   43 1
    42   21   44 1
    43   21   45 1
    44   22   46 1
    45   22   47 1
    46   22   48 1
    47   23   24 am
    48   23   27 1
    49   24   25 2
    50   24   26 am
    51   26   49 1
    52   27   50 1
    53   27   51 1
    54   27   52 1
@<TRIPOS>MOLECULE
ZINC13402410
   42    45     0     0     0
SMALL
USER_CHARGES
(3aR,4S,9bR)-4-(2-fluorophenyl)-6-methoxy-8-nitro-3a,4,5,9b-tetrahydro-3H-cyclopenta[c]quinoline
@<TRIPOS>ATOM
      1 C1          5.1195    3.3469   -0.2732 C.3       1 <0>         0.0212
      2 O1          3.8331    2.7294   -0.1961 O.3       1 <0>        -0.3023
      3 C2          2.8276    3.4635    0.3517 C.ar      1 <0>         0.0927
      4 C3          3.0834    4.7442    0.8011 C.ar      1 <0>        -0.1256
      5 C4          2.0699    5.4998    1.3615 C.ar      1 <0>        -0.0394
      6 C5          0.7974    4.9707    1.4614 C.ar      1 <0>        -0.0462
      7 C6          0.5291    3.6958    1.0062 C.ar      1 <0>        -0.0831
      8 C7          1.5446    2.9127    0.4546 C.ar      1 <0>         0.1674
      9 N1          1.3638    1.6061   -0.0023 N.pl3     1 <0>        -0.6165
     10 C8         -0.0127    1.0858    0.0080 C.3       1 <0>         0.1480
     11 H1          0.0021   -0.0041    0.0020 H         1 <0>         0.1202
     12 C9         -0.6690    1.5862    1.2783 C.3       1 <0>        -0.0927
     13 H2         -0.0624    1.3619    2.1557 H         1 <0>         0.1070
     14 C10        -0.8329    3.1220    1.0580 C.3       1 <0>        -0.0458
     15 H3         -1.2931    3.2511    0.0784 H         1 <0>         0.1036
     16 C11        -1.8278    3.5061    2.0884 C.2       1 <0>        -0.1556
     17 C12        -2.6057    2.4577    2.3356 C.2       1 <0>        -0.1543
     18 C13        -2.1517    1.2615    1.4952 C.3       1 <0>        -0.0944
     19 C14        -0.7635    1.5956   -1.1951 C.ar      1 <0>        -0.1493
     20 C15        -0.3009    2.7032   -1.8804 C.ar      1 <0>        -0.0984
     21 C16        -0.9891    3.1707   -2.9843 C.ar      1 <0>        -0.1198
     22 C17        -2.1404    2.5308   -3.4046 C.ar      1 <0>        -0.0852
     23 C18        -2.6050    1.4236   -2.7208 C.ar      1 <0>        -0.1463
     24 C19        -1.9135    0.9512   -1.6179 C.ar      1 <0>         0.1119
     25 F1         -2.3634   -0.1349   -0.9522 F         1 <0>        -0.1297
     26 N2          2.3468    6.8688    1.8514 N.pl3     1 <0>         0.0346
     27 O2          1.4518    7.5319    2.3441 O.2       1 <0>        -0.1599
     28 O3          3.4696    7.3322    1.7618 O.3       1 <0>        -0.1656
     29 H4          5.8278    2.6551   -0.7291 H         1 <0>         0.1094
     30 H5          5.0531    4.2506   -0.8789 H         1 <0>         0.0602
     31 H6          5.4589    3.6058    0.7298 H         1 <0>         0.0615
     32 H7          4.0777    5.1568    0.7143 H         1 <0>         0.1598
     33 H8          0.0057    5.5600    1.9001 H         1 <0>         0.1551
     34 H9          1.7925    1.4767   -0.9065 H         1 <0>         0.3812
     35 H10        -1.9067    4.4751    2.5589 H         1 <0>         0.1356
     36 H11        -3.4356    2.4507    3.0267 H         1 <0>         0.1350
     37 H12        -2.2712    0.3287    2.0462 H         1 <0>         0.0806
     38 H13        -2.6873    1.2242    0.5466 H         1 <0>         0.0881
     39 H14         0.5983    3.2038   -1.5531 H         1 <0>         0.1256
     40 H15        -0.6269    4.0362   -3.5191 H         1 <0>         0.1327
     41 H16        -2.6771    2.8967   -4.2674 H         1 <0>         0.1374
     42 H17        -3.5045    0.9241   -3.0491 H         1 <0>         0.1410
@<TRIPOS>BOND
     1    1    2 1
     2    1   29 1
     3    1   30 1
     4    1   31 1
     5    2    3 1
     6    3    8 ar
     7    3    4 ar
     8    4    5 ar
     9    4   32 1
    10    5    6 ar
    11    5   26 1
    12    6    7 ar
    13    6   33 1
    14    7   14 1
    15    7    8 ar
    16    8    9 1
    17    9   10 1
    18    9   34 1
    19   10   11 1
    20   10   12 1
    21   10   19 1
    22   12   13 1
    23   12   18 1
    24   12   14 1
    25   14   15 1
    26   14   16 1
    27   16   17 2
    28   16   35 1
    29   17   18 1
    30   17   36 1
    31   18   37 1
    32   18   38 1
    33   19   24 ar
    34   19   20 ar
    35   20   21 ar
    36   20   39 1
    37   21   22 ar
    38   21   40 1
    39   22   23 ar
    40   22   41 1
    41   23   24 ar
    42   23   42 1
    43   24   25 1
    44   26   27 2
    45   26   28 1
@<TRIPOS>MOLECULE
ZINC04638324
   43    45     0     0     0
SMALL
USER_CHARGES

@<TRIPOS>ATOM
      1 C1         -0.0173    1.4248    0.0099 C.3       1 <0>         0.0264
      2 O1          0.0021   -0.0041    0.0020 O.3       1 <0>        -0.3153
      3 C2          0.6258   -0.6184    1.0415 C.ar      1 <0>         0.1318
      4 C3          1.2023    0.1385    2.0514 C.ar      1 <0>        -0.1984
      5 C4          1.8353   -0.4882    3.1070 C.ar      1 <0>        -0.0744
      6 C5          1.8947   -1.8689    3.1579 C.ar      1 <0>        -0.1455
      7 C6          1.3214   -2.6252    2.1527 C.ar      1 <0>        -0.0506
      8 C7          0.6822   -2.0032    1.0975 C.ar      1 <0>        -0.1338
      9 C8          1.3885   -4.1296    2.2111 C.3       1 <0>        -0.0274
     10 H1          0.8862   -4.5492    1.3394 H         1 <0>         0.1239
     11 C9          2.8540   -4.5747    2.2184 C.3       1 <0>        -0.0323
     12 H2          2.8787   -5.6631    2.2719 H         1 <0>         0.0970
     13 C10         3.5250   -4.1465    0.9241 C.3       1 <0>        -0.1155
     14 C11         5.0409   -4.0627    1.0951 C.3       1 <0>        -0.1179
     15 C12         5.3487   -2.9874    2.1429 C.3       1 <0>        -0.0937
     16 C13         4.6351   -3.3400    3.4173 C.2       1 <0>        -0.1120
     17 C14         3.5438   -4.0288    3.4340 C.2       1 <0>        -0.1235
     18 C15         2.9258   -4.3232    4.7932 C.3       1 <0>         0.0230
     19 H3          3.0916   -5.3677    5.0572 H         1 <0>         0.1539
     20 C16         1.4405   -4.0493    4.6846 C.2       1 <0>         0.2159
     21 N1          0.8308   -3.3644    5.5769 N.2       1 <0>        -0.6217
     22 C17         0.6953   -4.6216    3.4846 C.3       1 <0>         0.2166
     23 C18        -0.6973   -4.1450    3.5036 C.1       1 <0>         0.2149
     24 N2         -1.7721   -3.7773    3.5182 N.1       1 <0>        -0.3587
     25 C19         0.7162   -6.0930    3.5205 C.1       1 <0>         0.2053
     26 N3          0.7323   -7.2285    3.5482 N.1       1 <0>        -0.3544
     27 C20         3.5240   -3.4483    5.8147 C.1       1 <0>         0.1933
     28 N4          3.9856   -2.7730    6.6031 N.1       1 <0>        -0.3807
     29 H4          1.0053    1.8021    0.0021 H         1 <0>         0.0567
     30 H5         -0.5445    1.7859   -0.8732 H         1 <0>         0.1022
     31 H6         -0.5275    1.7763    0.9067 H         1 <0>         0.0562
     32 H7          1.1565    1.2168    2.0119 H         1 <0>         0.1289
     33 H8          2.2845    0.1005    3.8932 H         1 <0>         0.1230
     34 H9          2.3900   -2.3570    3.9842 H         1 <0>         0.1241
     35 H10         0.2306   -2.5946    0.3148 H         1 <0>         0.1356
     36 H11         3.2923   -4.8709    0.1436 H         1 <0>         0.0781
     37 H12         3.1434   -3.1690    0.6294 H         1 <0>         0.0775
     38 H13         5.4263   -5.0250    1.4321 H         1 <0>         0.0698
     39 H14         5.5034   -3.7934    0.1455 H         1 <0>         0.0737
     40 H15         6.4230   -2.9497    2.3236 H         1 <0>         0.0775
     41 H16         5.0013   -2.0181    1.7853 H         1 <0>         0.0840
     42 H17         5.0495   -2.9963    4.3536 H         1 <0>         0.1091
     43 H18         1.3204   -3.0124    6.3367 H         1 <0>         0.3572
@<TRIPOS>BOND
     1    1    2 1
     2    1   29 1
     3    1   30 1
     4    1   31 1
     5    2    3 1
     6    3    8 ar
     7    3    4 ar
     8    4    5 ar
     9    4   32 1
    10    5    6 ar
    11    5   33 1
    12    6    7 ar
    13    6   34 1
    14    7    8 ar
    15    7    9 1
    16    8   35 1
    17    9   10 1
    18    9   22 1
    19    9   11 1
    20   11   12 1
    21   11   17 1
    22   11   13 1
    23   13   14 1
    24   13   36 1
    25   13   37 1
    26   14   15 1
    27   14   38 1
    28   14   39 1
    29   15   16 1
    30   15   40 1
    31   15   41 1
    32   16   17 2
    33   16   42 1
    34   17   18 1
    35   18   19 1
    36   18   20 1
    37   18   27 1
    38   20   21 2
    39   20   22 1
    40   21   43 1
    41   22   23 1
    42   22   25 1
    43   23   24 3
    44   25   26 3
    45   27   28 3
@<TRIPOS>MOLECULE
ZINC44023202
   53    56     0     0     0
SMALL
USER_CHARGES

@<TRIPOS>ATOM
      1 C1         -0.0107    1.4001   -0.1236 C.2       1 <0>        -0.3012
      2 C2          1.1690    2.0797    0.0021 C.2       1 <0>         0.4601
      3 N1          2.3432    1.3766    0.1211 N.am      1 <0>        -0.6496
      4 C3          2.3343    0.0310    0.1141 C.2       1 <0>         0.7000
      5 O1          3.3828   -0.5753    0.2205 O.2       1 <0>        -0.5418
      6 N2          1.1826   -0.6536   -0.0083 N.am      1 <0>        -0.5499
      7 C4          0.0083   -0.0035   -0.1279 C.2       1 <0>         0.5523
      8 O2         -1.0314   -0.6305   -0.2385 O.2       1 <0>        -0.5093
      9 C5          1.2053   -2.1184   -0.0124 C.3       1 <0>         0.1426
     10 C6          0.6247   -2.6338   -1.3308 C.3       1 <0>        -0.1336
     11 C7          0.6485   -4.1636   -1.3352 C.3       1 <0>        -0.1133
     12 C8         -0.1896   -4.6900   -0.1684 C.3       1 <0>        -0.1224
     13 C9          0.3910   -4.1747    1.1500 C.3       1 <0>        -0.1134
     14 C10         0.3672   -2.6449    1.1543 C.3       1 <0>        -0.1334
     15 N3          1.1800    3.4510    0.0089 N.pl3     1 <0>        -0.6673
     16 C11         1.2781    4.2121   -1.2461 C.3       1 <0>         0.1392
     17 C12         2.4428    5.2008   -1.1433 C.3       1 <0>        -0.1388
     18 C13         2.2783    6.0637    0.1115 C.3       1 <0>        -0.1134
     19 C14         2.2830    5.1621    1.3449 C.3       1 <0>        -0.1003
     20 H1          3.2105    4.5902    1.3715 H         1 <0>         0.0718
     21 C15         1.0881    4.1990    1.2673 C.3       1 <0>         0.1741
     22 H2          0.1578    4.7668    1.2861 H         1 <0>         0.0774
     23 C16         1.1324    3.2476    2.4620 C.3       1 <0>        -0.1319
     24 C17         1.0275    4.0635    3.7539 C.3       1 <0>        -0.1141
     25 C18         2.1879    5.0558    3.8371 C.3       1 <0>        -0.1228
     26 C19         2.1626    5.9928    2.6217 C.3       1 <0>        -0.1134
     27 H3         -0.9443    1.9355   -0.2139 H         1 <0>         0.1688
     28 H4          2.2331   -2.4661    0.0925 H         1 <0>         0.1093
     29 H5         -0.4030   -2.2861   -1.4358 H         1 <0>         0.0893
     30 H6          1.2218   -2.2587   -2.1620 H         1 <0>         0.0613
     31 H7          0.2348   -4.5307   -2.2744 H         1 <0>         0.0685
     32 H8          1.6762   -4.5113   -1.2303 H         1 <0>         0.0635
     33 H9         -1.2173   -4.3423   -0.2734 H         1 <0>         0.0665
     34 H10        -0.1727   -5.7799   -0.1715 H         1 <0>         0.0647
     35 H11        -0.2061   -4.5497    1.9812 H         1 <0>         0.0684
     36 H12         1.4187   -4.5224    1.2549 H         1 <0>         0.0635
     37 H13         0.7809   -2.2777    2.0936 H         1 <0>         0.0613
     38 H14        -0.6605   -2.2972    1.0494 H         1 <0>         0.0892
     39 H15         1.4541    3.5267   -2.0752 H         1 <0>         0.0752
     40 H16         0.3501    4.7586   -1.4144 H         1 <0>         0.0696
     41 H17         3.3817    4.6502   -1.0843 H         1 <0>         0.0642
     42 H18         2.4536    5.8414   -2.0251 H         1 <0>         0.0770
     43 H19         3.1030    6.7735    0.1760 H         1 <0>         0.0668
     44 H20         1.3337    6.6052    0.0598 H         1 <0>         0.0665
     45 H21         0.2977    2.5491    2.4031 H         1 <0>         0.0716
     46 H22         2.0725    2.6960    2.4543 H         1 <0>         0.0640
     47 H23         0.0835    4.6084    3.7625 H         1 <0>         0.0671
     48 H24         1.0639    3.3909    4.6109 H         1 <0>         0.0677
     49 H25         2.0980    5.6423    4.7515 H         1 <0>         0.0666
     50 H26         3.1312    4.5098    3.8496 H         1 <0>         0.0612
     51 H27         2.9944    6.6947    2.6799 H         1 <0>         0.0678
     52 H28         1.2207    6.5414    2.6124 H         1 <0>         0.0657
     53 H29         3.1835    1.8529    0.2102 H         1 <0>         0.4273
@<TRIPOS>BOND
     1    1    7 1
     2    1    2 2
     3    1   27 1
     4    2    3 1
     5    2   15 1
     6    3    4 am
     7    3   53 1
     8    4    5 2
     9    4    6 am
    10    6    7 am
    11    6    9 1
    12    7    8 2
    13    9   14 1
    14    9   10 1
    15    9   28 1
    16   10   11 1
    17   10   29 1
    18   10   30 1
    19   11   12 1
    20   11   31 1
    21   11   32 1
    22   12   13 1
    23   12   33 1
    24   12   34 1
    25   13   14 1
    26   13   35 1
    27   13   36 1
    28   14   37 1
    29   14   38 1
    30   15   21 1
    31   15   16 1
    32   16   17 1
    33   16   39 1
    34   16   40 1
    35   17   18 1
    36   17   41 1
    37   17   42 1
    38   18   19 1
    39   18   43 1
    40   18   44 1
    41   19   20 1
    42   19   26 1
    43   19   21 1
    44   21   22 1
    45   21   23 1
    46   23   24 1
    47   23   45 1
    48   23   46 1
    49   24   25 1
    50   24   47 1
    51   24   48 1
    52   25   26 1
    53   25   49 1
    54   25   50 1
    55   26   51 1
    56   26   52 1
@<TRIPOS>MOLECULE
ZINC60665496
   31    33     0     0     0
SMALL
USER_CHARGES

@<TRIPOS>ATOM
      1 C1         -0.0207    1.3994    0.0114 C.ar      1 <0>        -0.0432
      2 C2          1.1610    2.1088    0.0040 C.ar      1 <0>        -0.1379
      3 C3          2.3742    1.4368   -0.0523 C.ar      1 <0>         0.1397
      4 C4          2.4029    0.0407   -0.1020 C.ar      1 <0>         0.0645
      5 C5          1.2238   -0.6745   -0.0942 C.ar      1 <0>        -0.0369
      6 C6          0.0011    0.0029   -0.0374 C.ar      1 <0>        -0.1220
      7 C7         -1.2634   -0.7557   -0.0288 C.2       1 <0>         0.5131
      8 O1         -1.2437   -1.9700   -0.0712 O.2       1 <0>        -0.4782
      9 O2         -2.4407   -0.1024    0.0259 O.3       1 <0>        -0.2856
     10 C8         -3.5820   -0.8346   -0.0712 C.ar      1 <0>         0.0877
     11 C9         -4.0370   -1.5592    1.0210 C.ar      1 <0>        -0.0829
     12 C10        -5.1968   -2.3030    0.9216 C.ar      1 <0>        -0.1252
     13 C11        -5.9057   -2.3260   -0.2675 C.ar      1 <0>         0.1186
     14 C12        -5.4529   -1.6030   -1.3593 C.ar      1 <0>        -0.0634
     15 C13        -4.2955   -0.8533   -1.2604 C.ar      1 <0>        -0.0806
     16 Cl1        -6.3426   -1.6333   -2.8497 Cl        1 <0>        -0.0332
     17 F1         -7.0395   -3.0543   -0.3633 F         1 <0>        -0.1190
     18 O3          3.6006   -0.6018   -0.1598 O.3       1 <0>        -0.2952
     19 C14         4.6538    0.0658   -0.8599 C.3       1 <0>         0.0492
     20 C15         4.7116    1.5093   -0.4288 C.2       1 <0>         0.4911
     21 O4          5.7720    2.0979   -0.4143 O.2       1 <0>        -0.4967
     22 N1          3.5788    2.1449   -0.0594 N.am      1 <0>        -0.6597
     23 H1         -0.9640    1.9230    0.0594 H         1 <0>         0.1522
     24 H2          1.1430    3.1880    0.0416 H         1 <0>         0.1472
     25 H3          1.2442   -1.7536   -0.1322 H         1 <0>         0.1577
     26 H4         -3.4844   -1.5420    1.9487 H         1 <0>         0.1482
     27 H5         -5.5506   -2.8673    1.7718 H         1 <0>         0.1569
     28 H6         -3.9449   -0.2858   -2.1098 H         1 <0>         0.1544
     29 H7          5.6037   -0.4187   -0.6343 H         1 <0>         0.1524
     30 H8          4.4662    0.0145   -1.9324 H         1 <0>         0.1060
     31 H9          3.6011    3.0799    0.1977 H         1 <0>         0.4210
@<TRIPOS>BOND
     1    1    6 ar
     2    1    2 ar
     3    1   23 1
     4    2    3 ar
     5    2   24 1
     6    3   22 1
     7    3    4 ar
     8    4    5 ar
     9    4   18 1
    10    5    6 ar
    11    5   25 1
    12    6    7 1
    13    7    8 2
    14    7    9 1
    15    9   10 1
    16   10   15 ar
    17   10   11 ar
    18   11   12 ar
    19   11   26 1
    20   12   13 ar
    21   12   27 1
    22   13   14 ar
    23   13   17 1
    24   14   15 ar
    25   14   16 1
    26   15   28 1
    27   18   19 1
    28   19   20 1
    29   19   29 1
    30   19   30 1
    31   20   21 2
    32   20   22 am
    33   22   31 1
@<TRIPOS>MOLECULE
ZINC00834003
   32    33     0     0     0
SMALL
USER_CHARGES
N'-(2-iodobenzoyl)-2-nitro-benzohydrazide
@<TRIPOS>ATOM
      1 C1          0.3447   -2.2564    1.0264 C.ar      1 <0>        -0.0685
      2 C2          1.1779   -2.1394   -0.0723 C.ar      1 <0>        -0.0928
      3 C3          0.8517   -1.2812   -1.1071 C.ar      1 <0>        -0.0551
      4 C4         -0.3026   -0.5280   -1.0449 C.ar      1 <0>        -0.0029
      5 C5         -1.1473   -0.6413    0.0603 C.ar      1 <0>        -0.0630
      6 C6         -0.8149   -1.5131    1.0986 C.ar      1 <0>        -0.0852
      7 C7         -2.3884    0.1590    0.1312 C.2       1 <0>         0.5599
      8 O1         -2.3388    1.3685    0.0218 O.2       1 <0>        -0.4926
      9 N1         -3.5749   -0.4527    0.3172 N.am      1 <0>        -0.5079
     10 N2         -4.7510    0.3056    0.3844 N.am      1 <0>        -0.5113
     11 C8         -5.9375   -0.3061    0.5704 C.2       1 <0>         0.5500
     12 O2         -5.9871   -1.5158    0.6798 O.2       1 <0>        -0.5004
     13 C9         -7.1783    0.4939    0.6414 C.ar      1 <0>        -0.1067
     14 C10        -7.1243    1.8838    0.5219 C.ar      1 <0>        -0.0801
     15 C11        -8.2865    2.6239    0.5832 C.ar      1 <0>        -0.1072
     16 C12        -9.5035    1.9930    0.7742 C.ar      1 <0>        -0.0834
     17 C13        -9.5642    0.6170    0.8992 C.ar      1 <0>        -0.0907
     18 C14        -8.4092   -0.1366    0.8339 C.ar      1 <0>        -0.0578
     19 I1         -8.5031   -2.2208    1.0241 I         1 <0>         0.0081
     20 N3         -0.6475    0.3936   -2.1507 N.pl3     1 <0>         0.0192
     21 O3          0.1429    0.5778   -3.0588 O.2       1 <0>        -0.1559
     22 O4         -1.7238    0.9638   -2.1550 O.3       1 <0>        -0.1256
     23 H1          0.6028   -2.9315    1.8289 H         1 <0>         0.1544
     24 H2          2.0847   -2.7237   -0.1239 H         1 <0>         0.1564
     25 H3          1.5040   -1.1978   -1.9638 H         1 <0>         0.1633
     26 H4         -1.4645   -1.6056    1.9565 H         1 <0>         0.1553
     27 H5         -3.6145   -1.4180    0.4045 H         1 <0>         0.4344
     28 H6         -4.7114    1.2708    0.2972 H         1 <0>         0.4326
     29 H7         -6.1749    2.3780    0.3776 H         1 <0>         0.1348
     30 H8         -8.2463    3.6988    0.4867 H         1 <0>         0.1398
     31 H9        -10.4098    2.5780    0.8263 H         1 <0>         0.1395
     32 H10       -10.5170    0.1310    1.0484 H         1 <0>         0.1396
@<TRIPOS>BOND
     1    1    6 ar
     2    1    2 ar
     3    1   23 1
     4    2    3 ar
     5    2   24 1
     6    3    4 ar
     7    3   25 1
     8    4    5 ar
     9    4   20 1
    10    5    6 ar
    11    5    7 1
    12    6   26 1
    13    7    8 2
    14    7    9 am
    15    9   10 1
    16    9   27 1
    17   10   11 am
    18   10   28 1
    19   11   12 2
    20   11   13 1
    21   13   18 ar
    22   13   14 ar
    23   14   15 ar
    24   14   29 1
    25   15   16 ar
    26   15   30 1
    27   16   17 ar
    28   16   31 1
    29   17   18 ar
    30   17   32 1
    31   18   19 1
    32   20   21 2
    33   20   22 1
@<TRIPOS>MOLECULE
ZINC07525859
   48    51     0     0     0
SMALL
USER_CHARGES
N'-[2-(dioxoBLAHyl)acetyl]-2-(o-tolyl)acetohydrazide
@<TRIPOS>ATOM
      1 C1         -3.9737   -8.8936   -4.6481 C.3       1 <0>        -0.1186
      2 C2         -2.8983   -9.9492   -4.6640 C.ar      1 <0>        -0.0660
      3 C3         -3.2437  -11.2879   -4.6688 C.ar      1 <0>        -0.1201
      4 C4         -2.2574  -12.2560   -4.6839 C.ar      1 <0>        -0.1113
      5 C5         -0.9254  -11.8858   -4.6941 C.ar      1 <0>        -0.1251
      6 C6         -0.5801  -10.5474   -4.6946 C.ar      1 <0>        -0.1009
      7 C7         -1.5667   -9.5790   -4.6743 C.ar      1 <0>        -0.0746
      8 C8         -1.1902   -8.1198   -4.6695 C.3       1 <0>        -0.0917
      9 C9         -1.1715   -7.6105   -3.2513 C.2       1 <0>         0.5163
     10 O1         -1.4376   -8.3587   -2.3347 O.2       1 <0>        -0.5236
     11 N1         -0.8589   -6.3235   -3.0016 N.am      1 <0>        -0.5252
     12 N2         -0.8415   -5.8500   -1.6831 N.am      1 <0>        -0.5220
     13 C10        -0.5290   -4.5630   -1.4334 C.2       1 <0>         0.4846
     14 O2         -0.2628   -3.8147   -2.3500 O.2       1 <0>        -0.5068
     15 C11        -0.5102   -4.0536   -0.0152 C.3       1 <0>         0.1386
     16 N3         -0.1442   -2.6351   -0.0106 N.pl3     1 <0>        -0.9029
     17 C12         1.1508   -2.0912   -0.0195 C.ar      1 <0>         0.1406
     18 C13         2.3650   -2.7754   -0.0336 C.ar      1 <0>        -0.1098
     19 C14         3.5705   -2.0852   -0.0414 C.ar      1 <0>        -0.0868
     20 C15         3.6333   -0.7225   -0.0350 C.ar      1 <0>        -0.1125
     21 C16         2.4350    0.0109   -0.0203 C.ar      1 <0>        -0.0258
     22 C17         1.2164   -0.6992   -0.0130 C.ar      1 <0>        -0.0739
     23 C18         0.0021   -0.0041    0.0020 C.ar      1 <0>        -0.6414
     24 C19        -0.0162    1.3414    0.0094 C.ar      1 <0>         0.0501
     25 C20         1.1886    2.0558    0.0018 C.ar      1 <0>        -0.1366
     26 C21         2.3924    1.4150   -0.0122 C.ar      1 <0>        -0.0479
     27 S1         -1.1831   -1.3189    0.0059 S.o2      1 <0>         2.6704
     28 O3         -1.8437   -1.3036    1.2640 O.2       1 <0>        -0.9318
     29 O4         -1.8666   -1.2904   -1.2395 O.2       1 <0>        -0.9213
     30 H1         -4.2425   -8.6333   -5.6719 H         1 <0>         0.0735
     31 H2         -4.8516   -9.2771   -4.1283 H         1 <0>         0.0695
     32 H3         -3.6048   -8.0068   -4.1327 H         1 <0>         0.0618
     33 H4         -4.2842  -11.5771   -4.6612 H         1 <0>         0.1228
     34 H5         -2.5272  -13.3018   -4.6879 H         1 <0>         0.1226
     35 H6         -0.1547  -12.6423   -4.7062 H         1 <0>         0.1228
     36 H7          0.4603  -10.2582   -4.7071 H         1 <0>         0.1209
     37 H8         -1.9200   -7.5544   -5.2490 H         1 <0>         0.1114
     38 H9         -0.2016   -7.9982   -5.1123 H         1 <0>         0.1100
     39 H10        -0.6460   -5.7250   -3.7347 H         1 <0>         0.4334
     40 H11        -1.0544   -6.4484   -0.9500 H         1 <0>         0.4335
     41 H12         0.2195   -4.6191    0.5643 H         1 <0>         0.1311
     42 H13        -1.4988   -4.1753    0.4276 H         1 <0>         0.1302
     43 H14         2.3687   -3.8554   -0.0386 H         1 <0>         0.1313
     44 H15         4.4921   -2.6482   -0.0521 H         1 <0>         0.1344
     45 H16         4.5873   -0.2163   -0.0414 H         1 <0>         0.1396
     46 H17        -0.9582    1.8696    0.0168 H         1 <0>         0.1414
     47 H18         1.1637    3.1355    0.0077 H         1 <0>         0.1419
     48 H19         3.3097    1.9851   -0.0174 H         1 <0>         0.1433
@<TRIPOS>BOND
     1    1    2 1
     2    1   30 1
     3    1   31 1
     4    1   32 1
     5    2    7 ar
     6    2    3 ar
     7    3    4 ar
     8    3   33 1
     9    4    5 ar
    10    4   34 1
    11    5    6 ar
    12    5   35 1
    13    6    7 ar
    14    6   36 1
    15    7    8 1
    16    8    9 1
    17    8   37 1
    18    8   38 1
    19    9   10 2
    20    9   11 am
    21   11   12 1
    22   11   39 1
    23   12   13 am
    24   12   40 1
    25   13   14 2
    26   13   15 1
    27   15   16 1
    28   15   41 1
    29   15   42 1
    30   16   27 1
    31   16   17 1
    32   17   22 ar
    33   17   18 ar
    34   18   19 ar
    35   18   43 1
    36   19   20 ar
    37   19   44 1
    38   20   21 ar
    39   20   45 1
    40   21   26 ar
    41   21   22 ar
    42   22   23 ar
    43   23   24 ar
    44   23   27 1
    45   24   25 ar
    46   24   46 1
    47   25   26 ar
    48   25   47 1
    49   26   48 1
    50   27   28 2
    51   27   29 2
@<TRIPOS>MOLECULE
ZINC20000608
   55    57     0     0     0
SMALL
USER_CHARGES
(8R,8aS)-6-amino-8-(3-methoxy-4-propoxy-phenyl)-2-methyl-1,3,8,8a-tetrahydroisoquinoline-5,7,7-tricarbonitrile
@<TRIPOS>ATOM
      1 C1         -8.5230   -1.7145   -0.7862 C.3       1 <0>        -0.1522
      2 C2         -7.8403   -1.3745    0.5402 C.3       1 <0>        -0.1242
      3 C3         -6.4867   -0.7172    0.2632 C.3       1 <0>         0.0545
      4 O1         -5.8491   -0.3997    1.5020 O.3       1 <0>        -0.3019
      5 C4         -4.6277    0.1944    1.4333 C.ar      1 <0>         0.1143
      6 C5         -4.0557    0.4652    0.2006 C.ar      1 <0>        -0.1678
      7 C6         -2.8163    1.0739    0.1325 C.ar      1 <0>        -0.1057
      8 C7         -2.1400    1.4035    1.2923 C.ar      1 <0>        -0.1021
      9 C8         -2.7050    1.1361    2.5253 C.ar      1 <0>        -0.1529
     10 C9         -3.9495    0.5314    2.6007 C.ar      1 <0>         0.1044
     11 O2         -4.5065    0.2673    3.8129 O.3       1 <0>        -0.3028
     12 C10        -3.7529    0.6403    4.9683 C.3       1 <0>         0.0206
     13 C11        -0.7865    2.0613    1.2123 C.3       1 <0>        -0.0111
     14 H1         -0.3075    1.9907    2.2000 H         1 <0>         0.1299
     15 C12         0.0664    1.3515    0.1590 C.3       1 <0>        -0.0333
     16 H2         -0.3606    1.4732   -0.8474 H         1 <0>         0.0894
     17 C13         0.0927   -0.1457    0.3704 C.3       1 <0>         0.0561
     18 N1          1.3122   -0.5818    1.0561 N.3       1 <0>        -0.5343
     19 C14         2.4996   -0.2170    0.2635 C.3       1 <0>         0.0786
     20 C15         2.5475    1.2882    0.1756 C.2       1 <0>        -0.1359
     21 C16         1.4275    1.9865    0.1541 C.2       1 <0>        -0.0432
     22 C17         1.4827    3.4697    0.1791 C.2       1 <0>        -0.1428
     23 C18         0.3648    4.1702    0.4987 C.2       1 <0>         0.2561
     24 C19        -0.9527    3.5272    0.8107 C.3       1 <0>         0.2100
     25 C20        -1.5935    4.2579    1.9163 C.1       1 <0>         0.1969
     26 N2         -2.0880    4.8218    2.7696 N.1       1 <0>        -0.3541
     27 C21        -1.8177    3.6040   -0.3778 C.1       1 <0>         0.2026
     28 N3         -2.4852    3.6634   -1.2951 N.1       1 <0>        -0.3560
     29 N4          0.4446    5.5339    0.5376 N.pl3     1 <0>        -0.8627
     30 C22         2.7018    4.1541   -0.1310 C.1       1 <0>         0.2668
     31 N5          3.6689    4.6969   -0.3769 N.1       1 <0>        -0.4313
     32 C23         1.2794   -2.0264    1.3208 C.3       1 <0>         0.0210
     33 H3         -9.4962   -2.1871   -0.5871 H         1 <0>         0.0663
     34 H4         -7.8887   -2.4080   -1.3578 H         1 <0>         0.0584
     35 H5         -8.6749   -0.7929   -1.3672 H         1 <0>         0.0581
     36 H6         -8.4746   -0.6810    1.1118 H         1 <0>         0.0747
     37 H7         -7.6884   -2.2961    1.1212 H         1 <0>         0.0752
     38 H8         -5.8525   -1.4107   -0.3085 H         1 <0>         0.0639
     39 H9         -6.6386    0.2044   -0.3178 H         1 <0>         0.0628
     40 H10        -4.5800    0.2047   -0.7070 H         1 <0>         0.1378
     41 H11        -2.3735    1.2884   -0.8290 H         1 <0>         0.1274
     42 H12        -2.1767    1.3990    3.4299 H         1 <0>         0.1394
     43 H13        -4.3150    0.3720    5.8750 H         1 <0>         0.1040
     44 H14        -3.5746    1.7257    4.9551 H         1 <0>         0.0557
     45 H15        -2.7890    0.1103    4.9642 H         1 <0>         0.0591
     46 H16        -0.7711   -0.4448    0.9823 H         1 <0>         0.0931
     47 H17         0.0457   -0.6545   -0.6037 H         1 <0>         0.0431
     48 H18         3.4035   -0.6002    0.7596 H         1 <0>         0.0900
     49 H19         2.4188   -0.6565   -0.7416 H         1 <0>         0.0510
     50 H20         3.5181    1.8038    0.1294 H         1 <0>         0.1196
     51 H21        -0.4440    6.1298    0.7933 H         1 <0>         0.4255
     52 H22         1.3974    6.0357    0.3132 H         1 <0>         0.4365
     53 H23         2.2045   -2.3260    1.8349 H         1 <0>         0.0728
     54 H24         1.1956   -2.5717    0.3692 H         1 <0>         0.0275
     55 H25         0.4135   -2.2631    1.9565 H         1 <0>         0.0715
@<TRIPOS>BOND
     1    1    2 1
     2    1   33 1
     3    1   34 1
     4    1   35 1
     5    2    3 1
     6    2   36 1
     7    2   37 1
     8    3    4 1
     9    3   38 1
    10    3   39 1
    11    4    5 1
    12    5   10 ar
    13    5    6 ar
    14    6    7 ar
    15    6   40 1
    16    7    8 ar
    17    7   41 1
    18    8    9 ar
    19    8   13 1
    20    9   10 ar
    21    9   42 1
    22   10   11 1
    23   11   12 1
    24   12   43 1
    25   12   44 1
    26   12   45 1
    27   13   14 1
    28   13   24 1
    29   13   15 1
    30   15   16 1
    31   15   21 1
    32   15   17 1
    33   17   18 1
    34   17   46 1
    35   17   47 1
    36   18   19 1
    37   18   32 1
    38   19   20 1
    39   19   48 1
    40   19   49 1
    41   20   21 2
    42   20   50 1
    43   21   22 1
    44   22   23 2
    45   22   30 1
    46   23   24 1
    47   23   29 1
    48   24   25 1
    49   24   27 1
    50   25   26 3
    51   27   28 3
    52   29   51 1
    53   29   52 1
    54   30   31 3
    55   32   53 1
    56   32   54 1
    57   32   55 1
@<TRIPOS>MOLECULE
ZINC04077323
   37    39     0     0     0
SMALL
USER_CHARGES

@<TRIPOS>ATOM
      1 C1         -0.0167    1.3781    0.0096 C.ar      1 <0>        -0.0537
      2 C2          1.1709    2.0855    0.0021 C.ar      1 <0>        -0.1385
      3 C3          2.3773    1.4107   -0.0130 C.ar      1 <0>        -0.0210
      4 C4          2.3960    0.0285   -0.0201 C.ar      1 <0>        -0.6775
      5 C5          1.2084   -0.6789   -0.0117 C.ar      1 <0>        -0.0064
      6 C6          0.0021   -0.0041    0.0020 C.ar      1 <0>        -0.1370
      7 S1          3.9337   -0.8316   -0.0405 S.o2      1 <0>         2.6943
      8 O1          3.6744   -2.1140   -0.5951 O.2       1 <0>        -0.9020
      9 O2          4.8903    0.0598   -0.5970 O.2       1 <0>        -0.9330
     10 N1          4.3776   -1.0785    1.5357 N.pl3     1 <0>        -0.7448
     11 C7          5.1233   -0.2367    2.2971 C.2       1 <0>         0.4026
     12 C8          5.2598   -0.8064    3.5257 C.2       1 <0>        -0.3068
     13 C9          4.5765   -2.0302    3.5092 C.2       1 <0>         0.3099
     14 N2          4.0452   -2.1896    2.3210 N.2       1 <0>        -0.2574
     15 O3          4.4771   -2.9007    4.5491 O.3       1 <0>        -0.2537
     16 C10         3.7785   -4.0367    4.3584 C.2       1 <0>         0.4829
     17 O4          3.2604   -4.2577    3.2819 O.2       1 <0>        -0.4127
     18 C11         3.6424   -5.0130    5.4577 C.ar      1 <0>        -0.0987
     19 C12         4.2318   -4.7595    6.6983 C.ar      1 <0>        -0.0562
     20 C13         4.1008   -5.6756    7.7206 C.ar      1 <0>        -0.1174
     21 C14         3.3876   -6.8449    7.5200 C.ar      1 <0>        -0.0749
     22 C15         2.8013   -7.1036    6.2945 C.ar      1 <0>        -0.1017
     23 C16         2.9185   -6.1922    5.2635 C.ar      1 <0>        -0.0393
     24 Br1         2.1087   -6.5432    3.5912 Br        1 <0>        -0.0010
     25 N3          5.6519    0.9863    1.8942 N.pl3     1 <0>        -0.8417
     26 H1         -0.9591    1.9053    0.0259 H         1 <0>         0.1363
     27 H2          1.1563    3.1654    0.0076 H         1 <0>         0.1380
     28 H3          3.3051    1.9634   -0.0196 H         1 <0>         0.1387
     29 H4          1.2231   -1.7588   -0.0176 H         1 <0>         0.1467
     30 H5         -0.9258   -0.5567    0.0082 H         1 <0>         0.1389
     31 H6          5.7990   -0.3900    4.3638 H         1 <0>         0.1685
     32 H7          4.7893   -3.8481    6.8565 H         1 <0>         0.1488
     33 H8          4.5562   -5.4805    8.6802 H         1 <0>         0.1418
     34 H9          3.2888   -7.5588    8.3244 H         1 <0>         0.1417
     35 H10         2.2469   -8.0182    6.1448 H         1 <0>         0.1451
     36 H11         5.4980    1.3076    0.9920 H         1 <0>         0.4154
     37 H12         6.1742    1.5172    2.5157 H         1 <0>         0.4259
@<TRIPOS>BOND
     1    1    6 ar
     2    1    2 ar
     3    1   26 1
     4    2    3 ar
     5    2   27 1
     6    3    4 ar
     7    3   28 1
     8    4    5 ar
     9    4    7 1
    10    5    6 ar
    11    5   29 1
    12    6   30 1
    13    7    8 2
    14    7    9 2
    15    7   10 1
    16   10   14 1
    17   10   11 1
    18   11   12 2
    19   11   25 1
    20   12   13 1
    21   12   31 1
    22   13   14 2
    23   13   15 1
    24   15   16 1
    25   16   17 2
    26   16   18 1
    27   18   23 ar
    28   18   19 ar
    29   19   20 ar
    30   19   32 1
    31   20   21 ar
    32   20   33 1
    33   21   22 ar
    34   21   34 1
    35   22   23 ar
    36   22   35 1
    37   23   24 1
    38   25   36 1
    39   25   37 1
@<TRIPOS>MOLECULE
ZINC35363891
   59    63     0     0     0
SMALL
USER_CHARGES

@<TRIPOS>ATOM
      1 C1         -0.6144    1.1562    0.1053 C.3       1 <0>        -0.1162
      2 C2         -0.4464   -0.3409    0.0670 C.ar      1 <0>        -0.0974
      3 C3         -0.3672   -0.9932   -1.1462 C.ar      1 <0>        -0.0757
      4 C4         -0.2126   -2.3663   -1.1918 C.ar      1 <0>        -0.1304
      5 C5         -0.1372   -3.0904   -0.0147 C.ar      1 <0>        -0.0635
      6 C6         -0.2167   -2.4439    1.1980 C.ar      1 <0>        -0.1255
      7 C7         -0.3658   -1.0609    1.2562 C.ar      1 <0>         0.1615
      8 N1         -0.4134   -0.6360    2.5856 N.am      1 <0>        -0.6496
      9 C8         -0.2996   -1.6617    3.4512 C.2       1 <0>         0.5477
     10 O1         -0.3066   -1.5916    4.6620 O.2       1 <0>        -0.4842
     11 C9         -0.1736   -2.9124    2.6248 C.3       1 <0>         0.1267
     12 C10         1.1338   -3.6489    2.9380 C.3       1 <0>        -0.1438
     13 H1          1.5404   -3.3817    3.9134 H         1 <0>         0.1422
     14 C11         0.7706   -5.1563    2.8305 C.3       1 <0>        -0.1529
     15 H2          0.9816   -5.7097    3.7456 H         1 <0>         0.1418
     16 C12        -0.7267   -5.1760    2.4548 C.3       1 <0>         0.0938
     17 H3         -0.8456   -5.2579    1.3744 H         1 <0>         0.1018
     18 N2         -1.2573   -3.8712    2.9108 N.3       1 <0>        -0.6127
     19 C13        -1.4367   -6.3351    3.1570 C.3       1 <0>        -0.0915
     20 C14        -2.9172   -6.3354    2.7708 C.3       1 <0>        -0.1436
     21 C15        -0.7980   -7.6582    2.7301 C.3       1 <0>        -0.1468
     22 C16         1.5977   -5.6308    1.6570 C.2       1 <0>         0.5390
     23 O2          1.6169   -6.7638    1.2261 O.2       1 <0>        -0.4641
     24 N3          2.3047   -4.6057    1.1678 N.am      1 <0>        -0.5677
     25 C17         2.1251   -3.4331    1.8173 C.2       1 <0>         0.5483
     26 O3          2.6627   -2.3797    1.5509 O.2       1 <0>        -0.4538
     27 C18         3.2082   -4.7413    0.0225 C.3       1 <0>         0.1464
     28 C19         4.5856   -5.1098    0.5102 C.ar      1 <0>        -0.1595
     29 C20         5.4938   -4.1168    0.8279 C.ar      1 <0>        -0.0556
     30 C21         6.7573   -4.4519    1.2748 C.ar      1 <0>        -0.1554
     31 C22         7.1144   -5.7861    1.4051 C.ar      1 <0>         0.1390
     32 C23         6.2013   -6.7806    1.0861 C.ar      1 <0>        -0.2120
     33 C24         4.9373   -6.4402    0.6446 C.ar      1 <0>        -0.0534
     34 O4          8.3569   -6.1184    1.8440 O.3       1 <0>        -0.3162
     35 C25         8.6552   -7.5116    1.9538 C.3       1 <0>         0.0258
     36 H4          0.3663    1.6317    0.1147 H         1 <0>         0.0745
     37 H5         -1.1679    1.4823   -0.7753 H         1 <0>         0.0750
     38 H6         -1.1632    1.4373    1.0041 H         1 <0>         0.0619
     39 H7         -0.4265   -0.4283   -2.0648 H         1 <0>         0.1346
     40 H8         -0.1513   -2.8728   -2.1437 H         1 <0>         0.1326
     41 H9         -0.0163   -4.1631   -0.0476 H         1 <0>         0.1178
     42 H10        -0.5162    0.2903    2.8545 H         1 <0>         0.4184
     43 H11        -1.4626   -3.9008    3.8983 H         1 <0>         0.3550
     44 H12        -1.3429   -6.2180    4.2367 H         1 <0>         0.0771
     45 H13        -3.0110   -6.4524    1.6912 H         1 <0>         0.0566
     46 H14        -3.4230   -7.1611    3.2712 H         1 <0>         0.0574
     47 H15        -3.3722   -5.3927    3.0750 H         1 <0>         0.0639
     48 H16        -0.8919   -7.7753    1.6504 H         1 <0>         0.0606
     49 H17         0.2567   -7.6580    3.0052 H         1 <0>         0.0611
     50 H18        -1.3039   -8.4840    3.2304 H         1 <0>         0.0597
     51 H19         2.8374   -5.5215   -0.6423 H         1 <0>         0.1035
     52 H20         3.2548   -3.7957   -0.5175 H         1 <0>         0.1031
     53 H21         5.2153   -3.0783    0.7263 H         1 <0>         0.1335
     54 H22         7.4665   -3.6759    1.5222 H         1 <0>         0.1333
     55 H23         6.4769   -7.8200    1.1866 H         1 <0>         0.1307
     56 H24         4.2245   -7.2140    0.4003 H         1 <0>         0.1305
     57 H25         9.6763   -7.6373    2.3140 H         1 <0>         0.1025
     58 H26         7.9626   -7.9773    2.6549 H         1 <0>         0.0565
     59 H27         8.5542   -7.9829    0.9761 H         1 <0>         0.0574
@<TRIPOS>BOND
     1    1    2 1
     2    1   36 1
     3    1   37 1
     4    1   38 1
     5    2    7 ar
     6    2    3 ar
     7    3    4 ar
     8    3   39 1
     9    4    5 ar
    10    4   40 1
    11    5    6 ar
    12    5   41 1
    13    6   11 1
    14    6    7 ar
    15    7    8 1
    16    8    9 am
    17    8   42 1
    18    9   10 2
    19    9   11 1
    20   11   18 1
    21   11   12 1
    22   12   13 1
    23   12   25 1
    24   12   14 1
    25   14   15 1
    26   14   16 1
    27   14   22 1
    28   16   17 1
    29   16   18 1
    30   16   19 1
    31   18   43 1
    32   19   20 1
    33   19   21 1
    34   19   44 1
    35   20   45 1
    36   20   46 1
    37   20   47 1
    38   21   48 1
    39   21   49 1
    40   21   50 1
    41   22   23 2
    42   22   24 am
    43   24   25 am
    44   24   27 1
    45   25   26 2
    46   27   28 1
    47   27   51 1
    48   27   52 1
    49   28   33 ar
    50   28   29 ar
    51   29   30 ar
    52   29   53 1
    53   30   31 ar
    54   30   54 1
    55   31   32 ar
    56   31   34 1
    57   32   33 ar
    58   32   55 1
    59   33   56 1
    60   34   35 1
    61   35   57 1
    62   35   58 1
    63   35   59 1
@<TRIPOS>MOLECULE
ZINC67270642
   50    52     0     0     0
SMALL
USER_CHARGES

@<TRIPOS>ATOM
      1 C1          0.0187    1.4597    0.0483 C.3       1 <0>        -0.1630
      2 C2          0.0233   -0.0703    0.0409 C.3       1 <0>         0.1499
      3 C3          0.7493   -0.5841    1.2859 C.3       1 <0>        -0.1633
      4 N1         -1.3564   -0.5628    0.0421 N.pl3     1 <0>        -0.3736
      5 C4         -1.9051   -1.3439   -0.9131 C.2       1 <0>         0.3600
      6 C5         -3.2303   -1.5848   -0.5329 C.2       1 <0>        -0.2780
      7 C6         -4.0696   -2.3761   -1.3352 C.2       1 <0>         0.0830
      8 C7         -3.5611   -2.9155   -2.5127 C.2       1 <0>        -0.2271
      9 C8         -2.1672   -2.6382   -2.8735 C.2       1 <0>         0.5604
     10 O1         -1.7004   -3.0999   -3.8997 O.2       1 <0>        -0.5177
     11 N2         -1.4034   -1.8731   -2.0713 N.am      1 <0>        -0.6063
     12 H1         -0.4824   -1.6947   -2.3176 H         1 <0>         0.4126
     13 C9         -4.4035   -3.7463   -3.3767 C.2       1 <0>         0.0185
     14 C10        -3.9352   -4.1695   -4.5740 C.2       1 <0>        -0.2500
     15 C11        -4.7851   -4.8813   -5.4553 C.2       1 <0>         0.5525
     16 O2         -5.9373   -5.1127   -5.1359 O.2       1 <0>        -0.5351
     17 N3         -4.3188   -5.3027   -6.6476 N.am      1 <0>        -0.6614
     18 C12        -5.1832   -5.9236   -7.5579 C.ar      1 <0>         0.1544
     19 C13        -6.2095   -6.7359   -7.0991 C.ar      1 <0>        -0.1098
     20 C14        -7.0624   -7.3477   -8.0001 C.ar      1 <0>        -0.0205
     21 C15        -6.8948   -7.1518   -9.3597 C.ar      1 <0>        -0.1212
     22 C16        -5.8740   -6.3440   -9.8249 C.ar      1 <0>        -0.0964
     23 C17        -5.0180   -5.7222   -8.9281 C.ar      1 <0>         0.1437
     24 N4         -3.9877   -4.8989   -9.3972 N.pl3     1 <0>        -0.6843
     25 C18        -4.2248   -3.4660   -9.5889 C.3       1 <0>         0.1173
     26 C19        -2.6722   -5.4702   -9.6963 C.3       1 <0>         0.1118
     27 Cl1        -8.3459   -8.3645   -7.4237 Cl        1 <0>        -0.0661
     28 C20        -3.4312   -0.8815    0.7326 C.2       1 <0>         0.1215
     29 N5         -2.3045   -0.3012    1.0347 N.2       1 <0>        -0.2561
     30 H2          1.0453    1.8261    0.0474 H         1 <0>         0.0816
     31 H3         -0.4985    1.8257   -0.8387 H         1 <0>         0.0621
     32 H4         -0.4939    1.8172    0.9413 H         1 <0>         0.0770
     33 H5          0.5360   -0.4278   -0.8521 H         1 <0>         0.0965
     34 H6          0.2366   -0.2266    2.1789 H         1 <0>         0.0770
     35 H7          0.7525   -1.6741    1.2806 H         1 <0>         0.0621
     36 H8          1.7758   -0.2177    1.2850 H         1 <0>         0.0816
     37 H9         -5.0923   -2.5629   -1.0425 H         1 <0>         0.1524
     38 H10        -5.3982   -4.0212   -3.0582 H         1 <0>         0.1408
     39 H11        -2.9134   -3.9643   -4.8572 H         1 <0>         0.1658
     40 H12        -3.3844   -5.1759   -6.8752 H         1 <0>         0.4140
     41 H13        -6.3426   -6.8910   -6.0386 H         1 <0>         0.1524
     42 H14        -7.5632   -7.6316  -10.0593 H         1 <0>         0.1349
     43 H15        -5.7456   -6.1938  -10.8867 H         1 <0>         0.1350
     44 H16        -3.9861   -2.9320   -8.6692 H         1 <0>         0.0343
     45 H17        -3.5928   -3.0981  -10.3972 H         1 <0>         0.0595
     46 H18        -5.2720   -3.3019   -9.8430 H         1 <0>         0.0553
     47 H19        -2.6867   -6.5411   -9.4940 H         1 <0>         0.0631
     48 H20        -2.4333   -5.3020  -10.7464 H         1 <0>         0.0463
     49 H21        -1.9180   -4.9924   -9.0710 H         1 <0>         0.0435
     50 H22        -4.3423   -0.8525    1.3117 H         1 <0>         0.2090
@<TRIPOS>BOND
     1    1    2 1
     2    1   30 1
     3    1   31 1
     4    1   32 1
     5    2    3 1
     6    2    4 1
     7    2   33 1
     8    3   34 1
     9    3   35 1
    10    3   36 1
    11    4   29 1
    12    4    5 1
    13    5   11 1
    14    5    6 2
    15    6    7 1
    16    6   28 1
    17    7    8 2
    18    7   37 1
    19    8    9 1
    20    8   13 1
    21    9   10 2
    22    9   11 am
    23   11   12 1
    24   13   14 2
    25   13   38 1
    26   14   15 1
    27   14   39 1
    28   15   16 2
    29   15   17 am
    30   17   18 1
    31   17   40 1
    32   18   23 ar
    33   18   19 ar
    34   19   20 ar
    35   19   41 1
    36   20   21 ar
    37   20   27 1
    38   21   22 ar
    39   21   42 1
    40   22   23 ar
    41   22   43 1
    42   23   24 1
    43   24   25 1
    44   24   26 1
    45   25   44 1
    46   25   45 1
    47   25   46 1
    48   26   47 1
    49   26   48 1
    50   26   49 1
    51   28   29 2
    52   28   50 1
@<TRIPOS>MOLECULE
ZINC08883077
   51    55     0     0     0
SMALL
USER_CHARGES
N-(1-benzofuran-2-ylethyl)-2-(dioxoBLAHyl)-acetamide
@<TRIPOS>ATOM
      1 C1          2.7920    0.8322   -1.4572 C.3       1 <0>        -0.1649
      2 C2          2.4220    1.1832   -0.0147 C.3       1 <0>         0.2285
      3 H1          2.3338    0.2679    0.5707 H         1 <0>         0.1205
      4 C3          3.4948    2.0585    0.5802 C.2       1 <0>         0.0195
      5 C4          4.4684    1.6316    1.3958 C.2       1 <0>        -0.1840
      6 C5          5.2747    2.8134    1.7241 C.ar      1 <0>        -0.1315
      7 C6          6.4056    3.0348    2.5087 C.ar      1 <0>        -0.0687
      8 C7          6.9258    4.2955    2.6075 C.ar      1 <0>        -0.1343
      9 C8          6.3357    5.3539    1.9318 C.ar      1 <0>        -0.0902
     10 C9          5.2172    5.1541    1.1514 C.ar      1 <0>        -0.1072
     11 C10         4.6723    3.8810    1.0379 C.ar      1 <0>         0.0556
     12 O1          3.6170    3.3800    0.3650 O.3       1 <0>        -0.1904
     13 N1          1.1435    1.8983    0.0013 N.am      1 <0>        -0.7230
     14 C11        -0.0144    1.2086    0.0087 C.2       1 <0>         0.5066
     15 O2          0.0021   -0.0041    0.0020 O.2       1 <0>        -0.5203
     16 C12        -1.3296    1.9443    0.0189 C.3       1 <0>         0.0993
     17 N2         -2.4300    0.9773    0.0189 N.am      1 <0>        -0.5634
     18 C13        -2.9948    0.4703    1.1353 C.2       1 <0>         0.5441
     19 O3         -2.7006    0.7179    2.2851 O.2       1 <0>        -0.4492
     20 C14        -4.0704   -0.4697    0.6486 C.3       1 <0>         0.1935
     21 C15        -5.4411   -0.0395    1.1494 C.3       1 <0>        -0.1131
     22 C16        -5.5596   -0.2979    2.6544 C.3       1 <0>        -0.1203
     23 C17        -5.5907   -1.8142    2.8977 C.3       1 <0>        -0.0462
     24 C18        -4.4809   -2.4432    2.1207 C.2       1 <0>        -0.1183
     25 C19        -3.7647   -1.8866    1.1037 C.2       1 <0>        -0.1399
     26 C20        -2.7705   -2.6830    0.5359 C.2       1 <0>        -0.1338
     27 C21        -2.5593   -3.9366    0.9974 C.2       1 <0>        -0.1726
     28 S1         -3.7841   -4.0635    2.2919 S.3       1 <0>         0.0672
     29 N3         -3.9908   -0.3852   -0.8130 N.am      1 <0>        -0.7116
     30 C22        -3.0046    0.4908   -1.0885 C.2       1 <0>         0.7097
     31 O4         -2.6720    0.8021   -2.2152 O.2       1 <0>        -0.5351
     32 H2          2.8802    1.7474   -2.0426 H         1 <0>         0.0661
     33 H3          3.7432    0.3001   -1.4692 H         1 <0>         0.0750
     34 H4          2.0161    0.1990   -1.8876 H         1 <0>         0.0755
     35 H5          4.6277    0.6212    1.7423 H         1 <0>         0.1612
     36 H6          6.8690    2.2140    3.0360 H         1 <0>         0.1290
     37 H7          7.8019    4.4683    3.2150 H         1 <0>         0.1314
     38 H8          6.7573    6.3444    2.0179 H         1 <0>         0.1371
     39 H9          4.7653    5.9850    0.6299 H         1 <0>         0.1335
     40 H10         1.1304    2.8682    0.0067 H         1 <0>         0.4090
     41 H11        -1.3916    2.5653    0.9126 H         1 <0>         0.1288
     42 H12        -1.4000    2.5749   -0.8673 H         1 <0>         0.1322
     43 H13        -5.5800    1.0237    0.9533 H         1 <0>         0.0819
     44 H14        -6.2112   -0.6050    0.6248 H         1 <0>         0.0915
     45 H15        -6.4786    0.1513    3.0310 H         1 <0>         0.0882
     46 H16        -4.7017    0.1368    3.1675 H         1 <0>         0.0870
     47 H17        -6.5462   -2.2189    2.5642 H         1 <0>         0.0919
     48 H18        -5.4566   -2.0201    3.9596 H         1 <0>         0.0909
     49 H19        -2.1684   -2.2981   -0.2739 H         1 <0>         0.1315
     50 H20        -1.8379   -4.6701    0.6689 H         1 <0>         0.1891
     51 H21        -4.5410   -0.8620   -1.4540 H         1 <0>         0.4430
@<TRIPOS>BOND
     1    1    2 1
     2    1   32 1
     3    1   33 1
     4    1   34 1
     5    2    3 1
     6    2    4 1
     7    2   13 1
     8    4   12 1
     9    4    5 2
    10    5    6 1
    11    5   35 1
    12    6   11 ar
    13    6    7 ar
    14    7    8 ar
    15    7   36 1
    16    8    9 ar
    17    8   37 1
    18    9   10 ar
    19    9   38 1
    20   10   11 ar
    21   10   39 1
    22   11   12 1
    23   13   14 am
    24   13   40 1
    25   14   15 2
    26   14   16 1
    27   16   17 1
    28   16   41 1
    29   16   42 1
    30   17   30 am
    31   17   18 am
    32   18   19 2
    33   18   20 1
    34   20   25 1
    35   20   21 1
    36   20   29 1
    37   21   22 1
    38   21   43 1
    39   21   44 1
    40   22   23 1
    41   22   45 1
    42   22   46 1
    43   23   24 1
    44   23   47 1
    45   23   48 1
    46   24   28 1
    47   24   25 2
    48   25   26 1
    49   26   27 2
    50   26   49 1
    51   27   28 1
    52   27   50 1
    53   29   30 am
    54   29   51 1
    55   30   31 2
@<TRIPOS>MOLECULE
ZINC21732954
   54    57     0     0     0
SMALL
USER_CHARGES
2-[(4R)-4-(2-furyl)-4-methyl-2,5-dioxo-imidazolidin-1-yl]-N-[(1R)-1-tetralin-6-ylethyl]acetamide
@<TRIPOS>ATOM
      1 C1          1.0109   -2.7068    1.3939 C.3       1 <0>        -0.1576
      2 C2          1.2408   -2.1809   -0.0243 C.3       1 <0>         0.1896
      3 H1          2.2035   -2.5317   -0.4244 H         1 <0>         0.0952
      4 C3          1.2114   -0.6742   -0.0123 C.ar      1 <0>        -0.0923
      5 C4          0.0021   -0.0041    0.0020 C.ar      1 <0>        -0.1169
      6 C5         -0.0166    1.3751    0.0096 C.ar      1 <0>        -0.1143
      7 C6          1.1700    2.0973    0.0022 C.ar      1 <0>        -0.0730
      8 C7          2.3741    1.4300   -0.0067 C.ar      1 <0>        -0.0685
      9 C8          2.3908    0.0410   -0.0160 C.ar      1 <0>        -0.1072
     10 C9          3.6986    2.1474   -0.0029 C.3       1 <0>        -0.0851
     11 C10         3.5218    3.6040   -0.4269 C.3       1 <0>        -0.1228
     12 C11         2.4051    4.2229    0.4220 C.3       1 <0>        -0.1219
     13 C12         1.0762    3.6007   -0.0021 C.3       1 <0>        -0.0832
     14 N1          0.1858   -2.6828   -0.9083 N.am      1 <0>        -0.7319
     15 C13         0.3059   -3.8982   -1.4783 C.2       1 <0>         0.5060
     16 O1          1.2874   -4.5763   -1.2596 O.2       1 <0>        -0.5301
     17 C14        -0.7793   -4.4145   -2.3876 C.3       1 <0>         0.0968
     18 N2         -0.4145   -5.7468   -2.8757 N.am      1 <0>        -0.5606
     19 C15        -0.7399   -6.8967   -2.2526 C.2       1 <0>         0.5376
     20 O2         -1.3648   -7.0191   -1.2210 O.2       1 <0>        -0.4453
     21 C16        -0.1612   -8.0051   -3.1095 C.3       1 <0>         0.2017
     22 N3          0.4835   -7.2833   -4.2201 N.am      1 <0>        -0.7199
     23 C17         0.2778   -5.9725   -3.9981 C.2       1 <0>         0.7242
     24 O3          0.6789   -5.0916   -4.7331 O.2       1 <0>        -0.5329
     25 C18         0.8717   -8.8121   -2.3204 C.3       1 <0>        -0.1466
     26 C19        -1.2557   -8.9052   -3.6223 C.2       1 <0>        -0.0301
     27 C20        -1.2377   -9.5818   -4.7847 C.2       1 <0>        -0.1754
     28 C21        -2.4558  -10.2955   -4.8621 C.2       1 <0>        -0.2147
     29 C22        -3.1487  -10.0058   -3.7462 C.2       1 <0>        -0.0231
     30 O4         -2.4170   -9.1632   -2.9990 O.3       1 <0>        -0.1610
     31 H2          1.0324   -3.8066    1.3851 H         1 <0>         0.0647
     32 H3          0.0320   -2.3621    1.7586 H         1 <0>         0.0613
     33 H4          1.8030   -2.3299    2.0576 H         1 <0>         0.0687
     34 H5         -0.9247   -0.5586    0.0069 H         1 <0>         0.1209
     35 H6         -0.9617    1.8979    0.0169 H         1 <0>         0.1230
     36 H7          3.3350   -0.4831   -0.0258 H         1 <0>         0.1223
     37 H8          4.1273    2.1204    1.0098 H         1 <0>         0.0778
     38 H9          4.3856    1.6526   -0.7052 H         1 <0>         0.0759
     39 H10         4.4633    4.1496   -0.2659 H         1 <0>         0.0690
     40 H11         3.2516    3.6455   -1.4924 H         1 <0>         0.0658
     41 H12         2.5953    4.0157    1.4854 H         1 <0>         0.0659
     42 H13         2.3805    5.3105    0.2590 H         1 <0>         0.0689
     43 H14         0.8263    3.9496   -1.0149 H         1 <0>         0.0776
     44 H15         0.2923    3.9212    0.6999 H         1 <0>         0.0757
     45 H16        -0.7043   -2.0677   -1.1068 H         1 <0>         0.4207
     46 H17        -1.7262   -4.4744   -1.8311 H         1 <0>         0.1284
     47 H18        -0.8983   -3.7311   -3.2413 H         1 <0>         0.1315
     48 H19         1.0007   -7.8431   -5.0132 H         1 <0>         0.4723
     49 H20         1.2790   -9.6100   -2.9587 H         1 <0>         0.0868
     50 H21         0.3914   -9.2584   -1.4371 H         1 <0>         0.0880
     51 H22         1.6873   -8.1481   -1.9981 H         1 <0>         0.0835
     52 H23        -0.4441   -9.5818   -5.5173 H         1 <0>         0.1517
     53 H24        -2.7712  -10.9451   -5.6651 H         1 <0>         0.1543
     54 H25        -4.1277  -10.3860   -3.4941 H         1 <0>         0.2085
@<TRIPOS>BOND
     1    1    2 1
     2    1   31 1
     3    1   32 1
     4    1   33 1
     5    2    3 1
     6    2    4 1
     7    2   14 1
     8    4    9 ar
     9    4    5 ar
    10    5    6 ar
    11    5   34 1
    12    6    7 ar
    13    6   35 1
    14    7   13 1
    15    7    8 ar
    16    8    9 ar
    17    8   10 1
    18    9   36 1
    19   10   11 1
    20   10   37 1
    21   10   38 1
    22   11   12 1
    23   11   39 1
    24   11   40 1
    25   12   13 1
    26   12   41 1
    27   12   42 1
    28   13   43 1
    29   13   44 1
    30   14   15 am
    31   14   45 1
    32   15   16 2
    33   15   17 1
    34   17   18 1
    35   17   46 1
    36   17   47 1
    37   18   23 am
    38   18   19 am
    39   19   20 2
    40   19   21 1
    41   21   22 1
    42   21   25 1
    43   21   26 1
    44   22   23 am
    45   22   48 1
    46   23   24 2
    47   25   49 1
    48   25   50 1
    49   25   51 1
    50   26   30 1
    51   26   27 2
    52   27   28 1
    53   27   52 1
    54   28   29 2
    55   28   53 1
    56   29   30 1
    57   29   54 1
@<TRIPOS>MOLECULE
ZINC40005481
   42    44     0     0     0
SMALL
USER_CHARGES

@<TRIPOS>ATOM
      1 C1         -0.0187    1.5258    0.0104 C.3       1 <0>        -0.1321
      2 C2          0.0021   -0.0041    0.0020 C.3       1 <0>        -0.0694
      3 H1         -1.0108   -0.4062    0.0220 H         1 <0>         0.1606
      4 C3          0.7693   -0.5285   -1.1904 C.2       1 <0>         0.0682
      5 C4          1.8678   -1.2607   -0.9529 C.2       1 <0>        -0.3180
      6 C5          2.2431   -1.4980    0.4574 C.2       1 <0>         0.2844
      7 N1          3.3061   -2.2071    0.7541 N.2       1 <0>        -0.5329
      8 C6          4.0717   -2.7293   -0.1911 C.2       1 <0>         0.4421
      9 N2          3.8371   -2.5849   -1.4732 N.2       1 <0>        -0.5790
     10 C7          2.7959   -1.8913   -1.9451 C.2       1 <0>         0.5512
     11 O1          2.6073   -1.7768   -3.1443 O.2       1 <0>        -0.4440
     12 C8          5.2765   -3.5315    0.2282 C.3       1 <0>         0.1306
     13 O2          5.9627   -4.0028   -0.9333 O.3       1 <0>        -0.3283
     14 C9          7.0712   -4.7428   -0.7311 C.2       1 <0>         0.5193
     15 O3          7.4447   -4.9812    0.4008 O.2       1 <0>        -0.4919
     16 C10         7.8286   -5.2616   -1.8799 C.ar      1 <0>        -0.2135
     17 C11         7.4040   -4.9837   -3.1847 C.ar      1 <0>         0.0381
     18 C12         8.1079   -5.4653   -4.2506 C.ar      1 <0>        -0.1637
     19 C13         9.2525   -6.2365   -4.0487 C.ar      1 <0>         0.3055
     20 C14         9.6863   -6.5206   -2.7601 C.ar      1 <0>        -0.3013
     21 C15         8.9836   -6.0327   -1.6722 C.ar      1 <0>         0.2483
     22 O4          9.4056   -6.3023   -0.4114 O.3       1 <0>        -0.2779
     23 C16        10.5886   -7.0928   -0.2784 C.3       1 <0>         0.0190
     24 N3          9.9619   -6.7230   -5.1417 N.pl3     1 <0>        -0.8522
     25 Cl1         7.5753   -5.1166   -5.8657 Cl        1 <0>        -0.0621
     26 S1          0.9974   -0.6568    1.4036 S.3       1 <0>         0.0159
     27 C17         0.3152   -0.2390   -2.5979 C.3       1 <0>        -0.1370
     28 H2          1.0039    1.9031    0.0027 H         1 <0>         0.0753
     29 H3         -0.5459    1.8868   -0.8726 H         1 <0>         0.0894
     30 H4         -0.5289    1.8773    0.9072 H         1 <0>         0.0872
     31 H5          5.9456   -2.9024    0.8152 H         1 <0>         0.1120
     32 H6          4.9555   -4.3815    0.8304 H         1 <0>         0.1121
     33 H7          6.5182   -4.3879   -3.3481 H         1 <0>         0.1595
     34 H8         10.5727   -7.1183   -2.6073 H         1 <0>         0.1459
     35 H9         11.4218   -6.5845   -0.7637 H         1 <0>         0.0598
     36 H10        10.8147   -7.2334    0.7786 H         1 <0>         0.1063
     37 H11        10.4316   -8.0636   -0.7486 H         1 <0>         0.0598
     38 H12         9.6604   -6.5259   -6.0423 H         1 <0>         0.4077
     39 H13        10.7582   -7.2595   -5.0033 H         1 <0>         0.4065
     40 H14         0.7766    0.6853   -2.9456 H         1 <0>         0.1044
     41 H15         0.6099   -1.0604   -3.2510 H         1 <0>         0.1063
     42 H16        -0.7695   -0.1324   -2.6150 H         1 <0>         0.0880
@<TRIPOS>BOND
     1    1    2 1
     2    1   28 1
     3    1   29 1
     4    1   30 1
     5    2    3 1
     6    2   26 1
     7    2    4 1
     8    4    5 2
     9    4   27 1
    10    5   10 1
    11    5    6 1
    12    6    7 2
    13    6   26 1
    14    7    8 1
    15    8    9 2
    16    8   12 1
    17    9   10 1
    18   10   11 2
    19   12   13 1
    20   12   31 1
    21   12   32 1
    22   13   14 1
    23   14   15 2
    24   14   16 1
    25   16   21 ar
    26   16   17 ar
    27   17   18 ar
    28   17   33 1
    29   18   19 ar
    30   18   25 1
    31   19   20 ar
    32   19   24 1
    33   20   21 ar
    34   20   34 1
    35   21   22 1
    36   22   23 1
    37   23   35 1
    38   23   36 1
    39   23   37 1
    40   24   38 1
    41   24   39 1
    42   27   40 1
    43   27   41 1
    44   27   42 1
@<TRIPOS>MOLECULE
ZINC16739614
   41    44     0     0     0
SMALL
USER_CHARGES

@<TRIPOS>ATOM
      1 C1         -0.0166    1.3758    0.0096 C.ar      1 <0>        -0.1475
      2 C2          1.1722    2.0867    0.0021 C.ar      1 <0>        -0.0635
      3 C3          2.3852    1.4287   -0.0130 C.ar      1 <0>        -0.1419
      4 C4          2.4250    0.0387   -0.0213 C.ar      1 <0>         0.1692
      5 C5          1.2198   -0.6774   -0.0136 C.ar      1 <0>        -0.1133
      6 C6          0.0021   -0.0041    0.0020 C.ar      1 <0>        -0.0333
      7 C7          1.5863   -2.1101   -0.0253 C.2       1 <0>         0.1399
      8 N1          0.7682   -3.1498   -0.0238 N.2       1 <0>        -0.2576
      9 N2          1.2473   -4.3475   -0.0352 N.2       1 <0>        -0.3466
     10 C8          0.4251   -5.3925   -0.0338 C.2       1 <0>         0.3491
     11 N3         -0.9399   -5.3661   -0.0271 N.am      1 <0>        -0.6815
     12 C9         -1.6724   -6.4712   -0.0267 C.2       1 <0>         0.5281
     13 O1         -2.8848   -6.4685   -0.0209 O.2       1 <0>        -0.4600
     14 C10        -0.8375   -7.7433   -0.0342 C.3       1 <0>        -0.1141
     15 H1         -1.0108   -8.3358    0.8641 H         1 <0>         0.1739
     16 S1          0.8522   -7.0190   -0.0471 S.3       1 <0>         0.1206
     17 C11        -1.0938   -8.5685   -1.2969 C.3       1 <0>        -0.1477
     18 C12        -0.3434   -9.8722   -1.2059 C.2       1 <0>         0.4031
     19 O2          0.3300  -10.1172   -0.2277 O.2       1 <0>        -0.4344
     20 C13        -0.4278  -10.8475   -2.3037 C.ar      1 <0>        -0.1682
     21 C14        -1.1990  -10.5658   -3.4364 C.ar      1 <0>        -0.0598
     22 C15        -1.2731  -11.4841   -4.4613 C.ar      1 <0>        -0.1224
     23 C16        -0.5863  -12.6843   -4.3717 C.ar      1 <0>        -0.0023
     24 C17         0.1795  -12.9701   -3.2528 C.ar      1 <0>        -0.1219
     25 C18         0.2675  -12.0588   -2.2227 C.ar      1 <0>        -0.0425
     26 Cl1        -0.6864  -13.8356   -5.6671 Cl        1 <0>        -0.0550
     27 C19         3.0547   -2.1291   -0.0397 C.2       1 <0>         0.5323
     28 O3          3.7576   -3.1240   -0.0527 O.2       1 <0>        -0.4642
     29 N4          3.4872   -0.8567   -0.0367 N.am      1 <0>        -0.6558
     30 H2         -0.9595    1.9021    0.0259 H         1 <0>         0.1344
     31 H3          1.1496    3.1665    0.0077 H         1 <0>         0.1360
     32 H4          3.3052    1.9943   -0.0187 H         1 <0>         0.1338
     33 H5         -0.9244   -0.5590    0.0082 H         1 <0>         0.1336
     34 H6         -1.3905   -4.5071   -0.0223 H         1 <0>         0.4231
     35 H7         -2.1611   -8.7693   -1.3893 H         1 <0>         0.1366
     36 H8         -0.7518   -8.0126   -2.1699 H         1 <0>         0.1221
     37 H9         -1.7354   -9.6311   -3.5073 H         1 <0>         0.1429
     38 H10        -1.8681  -11.2680   -5.3363 H         1 <0>         0.1433
     39 H11         0.7119  -13.9077   -3.1895 H         1 <0>         0.1434
     40 H12         0.8681  -12.2811   -1.3531 H         1 <0>         0.1469
     41 H13         4.4216   -0.5967   -0.0446 H         1 <0>         0.4212
@<TRIPOS>BOND
     1    1    6 ar
     2    1    2 ar
     3    1   30 1
     4    2    3 ar
     5    2   31 1
     6    3    4 ar
     7    3   32 1
     8    4   29 1
     9    4    5 ar
    10    5    6 ar
    11    5    7 1
    12    6   33 1
    13    7    8 2
    14    7   27 1
    15    8    9 1
    16    9   10 2
    17   10   16 1
    18   10   11 1
    19   11   12 am
    20   11   34 1
    21   12   13 2
    22   12   14 1
    23   14   15 1
    24   14   16 1
    25   14   17 1
    26   17   18 1
    27   17   35 1
    28   17   36 1
    29   18   19 2
    30   18   20 1
    31   20   25 ar
    32   20   21 ar
    33   21   22 ar
    34   21   37 1
    35   22   23 ar
    36   22   38 1
    37   23   24 ar
    38   23   26 1
    39   24   25 ar
    40   24   39 1
    41   25   40 1
    42   27   28 2
    43   27   29 am
    44   29   41 1
@<TRIPOS>MOLECULE
ZINC05883372
   52    56     0     0     0
SMALL
USER_CHARGES

@<TRIPOS>ATOM
      1 C1         -0.7853    2.1784    0.8177 C.3       1 <0>        -0.1516
      2 C2         -1.2504    0.7275    0.9570 C.3       1 <0>        -0.1206
      3 C3         -0.2268   -0.0596    1.7777 C.3       1 <0>        -0.1500
      4 C4         -0.6918   -1.5106    1.9169 C.3       1 <0>         0.1076
      5 N1          0.2118   -2.2285    2.8193 N.am      1 <0>        -0.5441
      6 C5          1.4038   -2.8076    2.4210 C.ar      1 <0>         0.1662
      7 C6          1.9908   -2.8460    1.1552 C.ar      1 <0>        -0.1448
      8 C7          3.2059   -3.5029    1.0394 C.ar      1 <0>        -0.0787
      9 C8          3.8204   -4.0987    2.1218 C.ar      1 <0>        -0.1497
     10 C9          3.2460   -4.0685    3.3880 C.ar      1 <0>        -0.0453
     11 C10         2.0375   -3.4169    3.5114 C.ar      1 <0>        -0.1390
     12 C11         1.1472   -3.1907    4.6908 C.3       1 <0>         0.1254
     13 C12        -0.0174   -2.3983    4.1388 C.2       1 <0>         0.5422
     14 O1         -0.9759   -1.9944    4.7626 O.2       1 <0>        -0.4776
     15 C13         1.8464   -2.4058    5.7641 C.2       1 <0>        -0.2404
     16 C14         2.2626   -1.0714    5.7668 C.2       1 <0>         0.1688
     17 N2          2.8327   -0.8253    6.9311 N.2       1 <0>        -0.2415
     18 N3          2.7938   -1.9993    7.6993 N.pl3     1 <0>        -0.4402
     19 H1          3.1423   -2.1040    8.5984 H         1 <0>         0.4512
     20 C15         2.1864   -2.9562    6.9680 C.2       1 <0>         0.2884
     21 O2          1.9181   -4.2480    7.2822 O.3       1 <0>        -0.2258
     22 C16         1.0672   -4.9283    6.4877 C.2       1 <0>         0.4549
     23 C17         0.6669   -4.4931    5.2701 C.2       1 <0>        -0.2480
     24 C18        -0.2423   -5.2972    4.5103 C.1       1 <0>         0.2664
     25 N4         -0.9636   -5.9351    3.9075 N.1       1 <0>        -0.4245
     26 N5          0.5800   -6.1299    6.9388 N.pl3     1 <0>        -0.8234
     27 C19         2.0935   -0.1021    4.6556 C.ar      1 <0>        -0.0307
     28 C20         1.4546    1.1153    4.8810 C.ar      1 <0>        -0.0837
     29 C21         1.3000    2.0130    3.8440 C.ar      1 <0>        -0.1228
     30 C22         1.7781    1.7058    2.5829 C.ar      1 <0>        -0.1004
     31 C23         2.4127    0.4984    2.3536 C.ar      1 <0>        -0.1146
     32 C24         2.5782   -0.4040    3.3848 C.ar      1 <0>        -0.0885
     33 H2          0.1809    2.2035    0.3140 H         1 <0>         0.0551
     34 H3         -1.5146    2.7392    0.2331 H         1 <0>         0.0535
     35 H4         -0.6910    2.6263    1.8070 H         1 <0>         0.0566
     36 H5         -2.2166    0.7024    1.4608 H         1 <0>         0.0617
     37 H6         -1.3447    0.2796   -0.0323 H         1 <0>         0.0616
     38 H7          0.7395   -0.0346    1.2739 H         1 <0>         0.0814
     39 H8         -0.1325    0.3882    2.7669 H         1 <0>         0.0789
     40 H9         -1.7029   -1.5306    2.3235 H         1 <0>         0.0885
     41 H10        -0.6842   -1.9901    0.9380 H         1 <0>         0.0832
     42 H11         1.5178   -2.3836    0.3015 H         1 <0>         0.1336
     43 H12         3.6858   -3.5500    0.0731 H         1 <0>         0.1270
     44 H13         4.7672   -4.5994    1.9827 H         1 <0>         0.1258
     45 H14         3.7249   -4.5348    4.2363 H         1 <0>         0.1310
     46 H15         0.8496   -6.4673    7.8073 H         1 <0>         0.4146
     47 H16        -0.0339   -6.6415    6.3889 H         1 <0>         0.4299
     48 H17         1.0807    1.3560    5.8652 H         1 <0>         0.1237
     49 H18         0.8046    2.9568    4.0175 H         1 <0>         0.1258
     50 H19         1.6550    2.4111    1.7743 H         1 <0>         0.1262
     51 H20         2.7838    0.2634    1.3669 H         1 <0>         0.1264
     52 H21         3.0782   -1.3444    3.2057 H         1 <0>         0.1303
@<TRIPOS>BOND
     1    1    2 1
     2    1   33 1
     3    1   34 1
     4    1   35 1
     5    2    3 1
     6    2   36 1
     7    2   37 1
     8    3    4 1
     9    3   38 1
    10    3   39 1
    11    4    5 1
    12    4   40 1
    13    4   41 1
    14    5   13 am
    15    5    6 1
    16    6   11 ar
    17    6    7 ar
    18    7    8 ar
    19    7   42 1
    20    8    9 ar
    21    8   43 1
    22    9   10 ar
    23    9   44 1
    24   10   11 ar
    25   10   45 1
    26   11   12 1
    27   12   23 1
    28   12   13 1
    29   12   15 1
    30   13   14 2
    31   15   20 2
    32   15   16 1
    33   16   17 2
    34   16   27 1
    35   17   18 1
    36   18   19 1
    37   18   20 1
    38   20   21 1
    39   21   22 1
    40   22   23 2
    41   22   26 1
    42   23   24 1
    43   24   25 3
    44   26   46 1
    45   26   47 1
    46   27   32 ar
    47   27   28 ar
    48   28   29 ar
    49   28   48 1
    50   29   30 ar
    51   29   49 1
    52   30   31 ar
    53   30   50 1
    54   31   32 ar
    55   31   51 1
    56   32   52 1
@<TRIPOS>MOLECULE
ZINC24239715
   51    53     0     0     0
SMALL
USER_CHARGES
(2S)-2-[4-(2-fluorophenyl)piperazin-1-yl]-N-(2-thienylmethylcarbamoyl)propanamide
@<TRIPOS>ATOM
      1 C1         -0.3470   -0.4072    0.0038 C.3       1 <0>        -0.1817
      2 C2         -0.0127    1.0858    0.0080 C.3       1 <0>         0.0144
      3 H1          1.0745    1.2460   -0.0399 H         1 <0>         0.1657
      4 C3         -0.6776    1.7528   -1.1685 C.2       1 <0>         0.5182
      5 O1         -1.6592    2.4437   -0.9986 O.2       1 <0>        -0.4571
      6 N1         -0.1809    1.5812   -2.4096 N.am      1 <0>        -0.6888
      7 C4         -0.7755    2.1777   -3.4618 C.2       1 <0>         0.6972
      8 O2         -1.7596    2.8703   -3.2914 O.2       1 <0>        -0.5234
      9 N2         -0.2789    2.0060   -4.7029 N.am      1 <0>        -0.7359
     10 C5         -0.9252    2.6544   -5.8466 C.3       1 <0>         0.2265
     11 C6         -0.1804    2.3048   -7.1092 C.2       1 <0>        -0.1913
     12 C7         -0.3713    1.2600   -7.9514 C.2       1 <0>        -0.1191
     13 C8          0.4390    1.1397   -9.0647 C.2       1 <0>        -0.1687
     14 C9          1.4075    2.0643   -9.2758 C.2       1 <0>        -0.1506
     15 S1          1.1875    3.1549   -7.8796 S.3       1 <0>         0.0569
     16 N3         -0.4990    1.6929    1.2542 N.4       1 <0>        -0.3923
     17 C10         0.3781    1.3525    2.3831 C.3       1 <0>        -0.0065
     18 C11        -0.1162    2.0668    3.6432 C.3       1 <0>         0.0125
     19 N4         -1.5031    1.6661    3.9181 N.pl3     1 <0>        -0.4849
     20 C12        -2.3802    2.0065    2.7892 C.3       1 <0>         0.0282
     21 C13        -1.8859    1.2922    1.5291 C.3       1 <0>        -0.0121
     22 C14        -1.9660    2.2440    5.1044 C.ar      1 <0>         0.0619
     23 C15        -3.2317    1.9327    5.5824 C.ar      1 <0>        -0.1007
     24 C16        -3.6848    2.5023    6.7567 C.ar      1 <0>        -0.0988
     25 C17        -2.8833    3.3889    7.4520 C.ar      1 <0>        -0.0971
     26 C18        -1.6237    3.7060    6.9775 C.ar      1 <0>        -0.1240
     27 C19        -1.1618    3.1364    5.8051 C.ar      1 <0>         0.0538
     28 F1          0.0684    3.4467    5.3410 F         1 <0>        -0.1376
     29 H2          0.1383   -0.8940    0.8626 H         1 <0>         0.1009
     30 H3          0.0171   -0.8618   -0.9294 H         1 <0>         0.1111
     31 H4         -1.4367   -0.5391    0.0752 H         1 <0>         0.0932
     32 H5          0.7098    0.9543   -2.5637 H         1 <0>         0.4440
     33 H6          0.6117    1.3790   -4.8571 H         1 <0>         0.4256
     34 H7         -1.9655    2.3057   -5.9261 H         1 <0>         0.0954
     35 H8         -0.9139    3.7451   -5.7043 H         1 <0>         0.0880
     36 H9         -1.1468    0.5339   -7.7569 H         1 <0>         0.1358
     37 H10         0.3054    0.3189   -9.7537 H         1 <0>         0.1396
     38 H11         2.1261    2.1251  -10.0797 H         1 <0>         0.1908
     39 H12         0.3604    0.2648    2.5462 H         1 <0>         0.1389
     40 H13         1.4061    1.6728    2.1583 H         1 <0>         0.1416
     41 H14         0.5221    1.7906    4.4954 H         1 <0>         0.1400
     42 H15        -0.0716    3.1551    3.4892 H         1 <0>         0.0857
     43 H16        -3.4082    1.6862    3.0140 H         1 <0>         0.1304
     44 H17        -2.3625    3.0942    2.6261 H         1 <0>         0.0713
     45 H18        -2.5232    1.5682    0.6761 H         1 <0>         0.1539
     46 H19        -1.9296    0.2038    1.6824 H         1 <0>         0.1394
     47 H20        -3.8605    1.2436    5.0383 H         1 <0>         0.1395
     48 H21        -4.6681    2.2575    7.1303 H         1 <0>         0.1404
     49 H22        -3.2421    3.8352    8.3677 H         1 <0>         0.1411
     50 H23        -1.0003    4.3991    7.5228 H         1 <0>         0.1429
     51 H24        -0.4800    2.7853    1.1265 H         1 <0>         0.4456
@<TRIPOS>BOND
     1    1    2 1
     2    1   29 1
     3    1   30 1
     4    1   31 1
     5    2    3 1
     6    2    4 1
     7    2   16 1
     8    4    5 2
     9    4    6 am
    10    6    7 am
    11    6   32 1
    12    7    8 2
    13    7    9 am
    14    9   10 1
    15    9   33 1
    16   10   11 1
    17   10   34 1
    18   10   35 1
    19   11   15 1
    20   11   12 2
    21   12   13 1
    22   12   36 1
    23   13   14 2
    24   13   37 1
    25   14   15 1
    26   14   38 1
    27   16   21 1
    28   16   17 1
    29   16   51 1
    30   17   18 1
    31   17   39 1
    32   17   40 1
    33   18   19 1
    34   18   41 1
    35   18   42 1
    36   19   20 1
    37   19   22 1
    38   20   21 1
    39   20   43 1
    40   20   44 1
    41   21   45 1
    42   21   46 1
    43   22   27 ar
    44   22   23 ar
    45   23   24 ar
    46   23   47 1
    47   24   25 ar
    48   24   48 1
    49   25   26 ar
    50   25   49 1
    51   26   27 ar
    52   26   50 1
    53   27   28 1
@<TRIPOS>MOLECULE
ZINC39978368
   53    55     0     0     0
SMALL
USER_CHARGES

@<TRIPOS>ATOM
      1 C1         -1.1112    3.6073    3.0704 C.3       1 <0>        -0.1194
      2 C2         -1.1358    2.1958    2.5431 C.ar      1 <0>        -0.0903
      3 C3         -1.5829    1.9469    1.2574 C.ar      1 <0>        -0.0863
      4 C4         -1.6083    0.6542    0.7655 C.ar      1 <0>        -0.1203
      5 C5         -1.1877   -0.3961    1.5553 C.ar      1 <0>        -0.0911
      6 C6         -0.7356   -0.1520    2.8528 C.ar      1 <0>        -0.1419
      7 C7         -0.7072    1.1555    3.3411 C.ar      1 <0>        -0.0568
      8 C8         -0.2838   -1.2726    3.7048 C.2       1 <0>         0.5733
      9 O1          0.1095   -1.0570    4.8346 O.2       1 <0>        -0.5257
     10 N1         -0.3081   -2.5333    3.2289 N.am      1 <0>        -0.7172
     11 C9          0.1396   -3.6437    4.0731 C.3       1 <0>         0.1428
     12 H1         -0.1325   -3.4447    5.1097 H         1 <0>         0.1178
     13 C10         1.6588   -3.7877    3.9632 C.3       1 <0>        -0.1051
     14 C11         2.3255   -2.4653    4.3473 C.3       1 <0>        -0.1423
     15 C12         2.1360   -4.8927    4.9078 C.3       1 <0>        -0.1672
     16 C13        -0.5202   -4.9194    3.6167 C.2       1 <0>         0.5253
     17 O2         -0.9981   -4.9906    2.5046 O.2       1 <0>        -0.4485
     18 N2         -0.5791   -5.9813    4.4447 N.am      1 <0>        -0.5844
     19 N3         -1.2869   -7.1286    4.0632 N.2       1 <0>        -0.1056
     20 C14        -1.4140   -8.1277    4.8998 C.2       1 <0>         0.0611
     21 C15        -1.0149   -7.9786    6.2358 C.2       1 <0>         0.0497
     22 C16        -1.1837   -8.8937    7.2721 C.ar      1 <0>        -0.1289
     23 C17        -1.7676  -10.1788    7.3251 C.ar      1 <0>        -0.0230
     24 C18        -1.7934  -10.8582    8.4992 C.ar      1 <0>        -0.1365
     25 C19        -1.2536  -10.3182    9.6704 C.ar      1 <0>         0.0493
     26 C20        -0.6783   -9.0922    9.6939 C.ar      1 <0>        -0.2007
     27 C21        -0.6133   -8.3198    8.5036 C.ar      1 <0>         0.3155
     28 N4         -0.1167   -7.1240    8.2672 N.pl3     1 <0>        -0.5881
     29 C22        -0.3052   -6.7929    6.8514 C.3       1 <0>         0.0424
     30 H2         -0.1498    4.0654    2.8379 H         1 <0>         0.0762
     31 H3         -1.9104    4.1834    2.6041 H         1 <0>         0.0720
     32 H4         -1.2555    3.5942    4.1508 H         1 <0>         0.0704
     33 H5         -1.9139    2.7654    0.6354 H         1 <0>         0.1317
     34 H6         -1.9584    0.4666   -0.2388 H         1 <0>         0.1333
     35 H7         -1.2087   -1.4050    1.1704 H         1 <0>         0.1253
     36 H8         -0.3543    1.3517    4.3427 H         1 <0>         0.1371
     37 H9         -0.6219   -2.7054    2.3273 H         1 <0>         0.4147
     38 H10         1.9262   -4.0452    2.9384 H         1 <0>         0.0906
     39 H11         2.0581   -2.2078    5.3722 H         1 <0>         0.0716
     40 H12         3.4078   -2.5678    4.2691 H         1 <0>         0.0626
     41 H13         1.9855   -1.6781    3.6744 H         1 <0>         0.0613
     42 H14         1.7670   -5.8560    4.5558 H         1 <0>         0.0489
     43 H15         3.2257   -4.9069    4.9292 H         1 <0>         0.0865
     44 H16         1.7554   -4.7024    5.9113 H         1 <0>         0.0570
     45 H17        -0.1315   -5.9511    5.3047 H         1 <0>         0.3872
     46 H18        -1.8263   -9.0666    4.5610 H         1 <0>         0.2238
     47 H19        -2.1920  -10.6187    6.4347 H         1 <0>         0.1637
     48 H20        -2.2422  -11.8400    8.5299 H         1 <0>         0.1605
     49 H21        -1.2969  -10.8950   10.5824 H         1 <0>         0.1643
     50 H22        -0.2700   -8.7032   10.6150 H         1 <0>         0.1635
     51 H23         0.6596   -6.6405    6.3676 H         1 <0>         0.1709
     52 H24        -0.9190   -5.8973    6.7563 H         1 <0>         0.1716
     53 H25         0.3103   -6.5533    8.9251 H         1 <0>         0.4577
@<TRIPOS>BOND
     1    1    2 1
     2    1   30 1
     3    1   31 1
     4    1   32 1
     5    2    7 ar
     6    2    3 ar
     7    3    4 ar
     8    3   33 1
     9    4    5 ar
    10    4   34 1
    11    5    6 ar
    12    5   35 1
    13    6    7 ar
    14    6    8 1
    15    7   36 1
    16    8    9 2
    17    8   10 am
    18   10   11 1
    19   10   37 1
    20   11   12 1
    21   11   13 1
    22   11   16 1
    23   13   14 1
    24   13   15 1
    25   13   38 1
    26   14   39 1
    27   14   40 1
    28   14   41 1
    29   15   42 1
    30   15   43 1
    31   15   44 1
    32   16   17 2
    33   16   18 am
    34   18   19 1
    35   18   45 1
    36   19   20 2
    37   20   21 1
    38   20   46 1
    39   21   29 1
    40   21   22 2
    41   22   27 ar
    42   22   23 ar
    43   23   24 ar
    44   23   47 1
    45   24   25 ar
    46   24   48 1
    47   25   26 ar
    48   25   49 1
    49   26   27 ar
    50   26   50 1
    51   27   28 2
    52   28   29 1
    53   28   53 1
    54   29   51 1
    55   29   52 1
@<TRIPOS>MOLECULE
ZINC61604855
   61    64     0     0     0
SMALL
USER_CHARGES

@<TRIPOS>ATOM
      1 C1          0.0158    1.3571   -0.1220 C.ar      1 <0>        -0.1063
      2 C2          1.2037    2.0641   -0.1195 C.ar      1 <0>        -0.1216
      3 C3          2.4099    1.3889   -0.1143 C.ar      1 <0>        -0.1015
      4 C4          2.4283    0.0067   -0.1112 C.ar      1 <0>        -0.1171
      5 C5          1.2404   -0.7003   -0.1128 C.ar      1 <0>        -0.0979
      6 C6          0.0342   -0.0251   -0.1194 C.ar      1 <0>        -0.1188
      7 C7          3.7433   -0.7294   -0.1065 C.3       1 <0>         0.1826
      8 N1          4.1662   -0.9648    1.2762 N.am      1 <0>        -0.7383
      9 C8          5.2686   -1.6982    1.5281 C.2       1 <0>         0.6997
     10 O1          5.9628   -2.0876    0.6090 O.2       1 <0>        -0.5686
     11 N2          5.6014   -1.9998    2.7988 N.am      1 <0>        -0.7431
     12 C9          6.8565   -2.7009    3.0805 C.3       1 <0>         0.1783
     13 C10         6.7935   -4.1365    2.5301 C.3       1 <0>        -0.1185
     14 C11         6.9644   -5.0798    3.7387 C.3       1 <0>        -0.1268
     15 C12         6.5149   -4.2281    4.9518 C.3       1 <0>        -0.1233
     16 C13         7.0636   -2.8220    4.6044 C.3       1 <0>        -0.1226
     17 C14         8.0122   -1.9593    2.4598 C.2       1 <0>         0.5306
     18 O2          8.9103   -2.5743    1.9249 O.2       1 <0>        -0.5020
     19 N3          8.0478   -0.6125    2.4991 N.am      1 <0>        -0.6200
     20 C15         7.0132    0.1048    3.2713 C.3       1 <0>         0.0948
     21 C16         7.6245    1.2766    4.0607 C.3       1 <0>        -0.1613
     22 C17         8.9604    0.8559    4.6323 C.3       1 <0>        -0.0011
     23 N4         10.0235    1.2393    3.7063 N.4       1 <0>        -0.3367
     24 C18        10.3201    0.2820    2.7108 C.3       1 <0>        -0.0438
     25 C19         9.1027    0.0791    1.7873 C.3       1 <0>         0.1008
     26 C20        11.2445    1.4945    4.4823 C.3       1 <0>        -0.0922
     27 C21        11.7430    2.9389    4.5603 C.3       1 <0>        -0.1506
     28 C22        12.4972    1.9141    3.7107 C.3       1 <0>        -0.1556
     29 H1         -0.9266    1.8846   -0.1215 H         1 <0>         0.1264
     30 H2          1.1893    3.1440   -0.1220 H         1 <0>         0.1254
     31 H3          3.3379    1.9413   -0.1131 H         1 <0>         0.1207
     32 H4          1.2548   -1.7802   -0.1107 H         1 <0>         0.1243
     33 H5         -0.8939   -0.5775   -0.1210 H         1 <0>         0.1272
     34 H6          3.6268   -1.6846   -0.6185 H         1 <0>         0.0788
     35 H7          4.4962   -0.1314   -0.6200 H         1 <0>         0.0735
     36 H8          3.6529   -0.5929    2.0104 H         1 <0>         0.3977
     37 H9          5.0099   -1.7528    3.5268 H         1 <0>         0.4011
     38 H10         5.8290   -4.3115    2.0533 H         1 <0>         0.0791
     39 H11         7.5992   -4.2975    1.8139 H         1 <0>         0.0930
     40 H12         6.3266   -5.9571    3.6311 H         1 <0>         0.0764
     41 H13         8.0077   -5.3764    3.8465 H         1 <0>         0.0721
     42 H14         5.4278   -4.2102    5.0296 H         1 <0>         0.0760
     43 H15         6.9630   -4.6010    5.8728 H         1 <0>         0.0791
     44 H16         8.1229   -2.7540    4.8520 H         1 <0>         0.0830
     45 H17         6.4981   -2.0516    5.1287 H         1 <0>         0.0820
     46 H18         6.2584    0.4903    2.5859 H         1 <0>         0.0826
     47 H19         6.5418   -0.5885    3.9679 H         1 <0>         0.1057
     48 H20         7.7659    2.1284    3.3956 H         1 <0>         0.0891
     49 H21         6.9537    1.5568    4.8729 H         1 <0>         0.1266
     50 H22         9.1176    1.3495    5.5914 H         1 <0>         0.1377
     51 H23         8.9721   -0.2250    4.7725 H         1 <0>         0.1279
     52 H24        11.1693    0.6262    2.1204 H         1 <0>         0.1420
     53 H25        10.5740   -0.6658    3.1856 H         1 <0>         0.1331
     54 H26         9.4040   -0.5118    0.9223 H         1 <0>         0.1275
     55 H27         8.7376    1.0499    1.4522 H         1 <0>         0.0952
     56 H28        11.3823    0.8659    5.3621 H         1 <0>         0.1756
     57 H29        11.1650    3.6998    4.0359 H         1 <0>         0.1198
     58 H30        12.2088    3.2609    5.4917 H         1 <0>         0.1345
     59 H31        13.4592    1.5620    4.0830 H         1 <0>         0.1347
     60 H32        12.4155    2.0009    2.6272 H         1 <0>         0.1203
     61 H33         9.7547    2.0989    3.2513 H         1 <0>         0.4127
@<TRIPOS>BOND
     1    1    6 ar
     2    1    2 ar
     3    1   29 1
     4    2    3 ar
     5    2   30 1
     6    3    4 ar
     7    3   31 1
     8    4    5 ar
     9    4    7 1
    10    5    6 ar
    11    5   32 1
    12    6   33 1
    13    7    8 1
    14    7   34 1
    15    7   35 1
    16    8    9 am
    17    8   36 1
    18    9   10 2
    19    9   11 am
    20   11   12 1
    21   11   37 1
    22   12   16 1
    23   12   13 1
    24   12   17 1
    25   13   14 1
    26   13   38 1
    27   13   39 1
    28   14   15 1
    29   14   40 1
    30   14   41 1
    31   15   16 1
    32   15   42 1
    33   15   43 1
    34   16   44 1
    35   16   45 1
    36   17   18 2
    37   17   19 am
    38   19   25 1
    39   19   20 1
    40   20   21 1
    41   20   46 1
    42   20   47 1
    43   21   22 1
    44   21   48 1
    45   21   49 1
    46   22   23 1
    47   22   50 1
    48   22   51 1
    49   23   24 1
    50   23   26 1
    51   23   61 1
    52   24   25 1
    53   24   52 1
    54   24   53 1
    55   25   54 1
    56   25   55 1
    57   26   28 1
    58   26   27 1
    59   26   56 1
    60   27   28 1
    61   27   57 1
    62   27   58 1
    63   28   59 1
    64   28   60 1
@<TRIPOS>MOLECULE
ZINC65074775
   52    55     0     0     0
SMALL
USER_CHARGES

@<TRIPOS>ATOM
      1 C1         -0.0167    1.3780    0.0096 C.ar      1 <0>        -0.1249
      2 C2          1.1706    2.0866    0.0021 C.ar      1 <0>        -0.0599
      3 C3          2.3773    1.4137   -0.0131 C.ar      1 <0>        -0.1497
      4 C4          2.3974    0.0291   -0.0207 C.ar      1 <0>         0.1213
      5 C5          1.2080   -0.6793   -0.0132 C.ar      1 <0>        -0.1736
      6 C6          0.0021   -0.0041    0.0020 C.ar      1 <0>        -0.0635
      7 C7          1.2281   -2.1862   -0.0220 C.3       1 <0>         0.1241
      8 N1          1.4877   -2.6790    1.3330 N.pl3     1 <0>        -0.6626
      9 C8          1.5515   -4.0266    1.5712 C.cat     1 <0>         0.4914
     10 N2          1.3846   -4.8241    0.5848 N.pl3     1 <0>        -0.6055
     11 C9          1.4173   -6.2781    0.7024 C.3       1 <0>         0.0418
     12 C10         2.0786   -6.6841    2.0213 C.3       1 <0>         0.0233
     13 N3          1.4612   -5.9091    3.1109 N.3       1 <0>        -0.6453
     14 C11         1.8199   -4.4881    2.9757 C.3       1 <0>         0.1318
     15 C12         0.9814   -3.6633    3.9559 C.3       1 <0>        -0.1294
     16 C13         1.2299   -4.1656    5.3816 C.3       1 <0>         0.1263
     17 N4          2.6741   -4.1335    5.6496 N.pl3     1 <0>        -0.9969
     18 C14         3.5811   -4.8159    4.7168 C.3       1 <0>         0.1285
     19 C15         3.3056   -4.3055    3.2990 C.3       1 <0>        -0.1195
     20 S1          3.2684   -3.3426    6.9777 S.o2      1 <0>         2.7258
     21 O1          4.6167   -3.0065    6.6806 O.2       1 <0>        -0.9412
     22 O2          2.3007   -2.3654    7.3352 O.2       1 <0>        -0.9420
     23 C16         3.3192   -4.5078    8.2985 C.2       1 <0>        -0.7772
     24 C17         4.3249   -5.3393    8.6649 C.2       1 <0>         0.0017
     25 C18         4.1403   -6.1779    9.7482 C.2       1 <0>        -0.1955
     26 C19         2.9589   -6.1439   10.4119 C.2       1 <0>        -0.1208
     27 S2          2.0622   -4.8939    9.5060 S.3       1 <0>         0.1662
     28 F1          3.5766   -0.6299   -0.0360 F         1 <0>        -0.1327
     29 H1         -0.9594    1.9048    0.0260 H         1 <0>         0.1422
     30 H2          1.1547    3.1665    0.0077 H         1 <0>         0.1453
     31 H3          3.3046    1.9675   -0.0193 H         1 <0>         0.1471
     32 H4         -0.9259   -0.5565    0.0083 H         1 <0>         0.1387
     33 H5          0.2640   -2.5604   -0.3662 H         1 <0>         0.1072
     34 H6          2.0136   -2.5351   -0.6922 H         1 <0>         0.1031
     35 H7          1.6144   -2.0512    2.0615 H         1 <0>         0.4390
     36 H8          0.3991   -6.6661    0.6741 H         1 <0>         0.1150
     37 H9          1.9843   -6.6954   -0.1297 H         1 <0>         0.1273
     38 H10         1.9241   -7.7488    2.1960 H         1 <0>         0.1316
     39 H11         3.1461   -6.4681    1.9775 H         1 <0>         0.1051
     40 H12         0.4599   -6.0331    3.1206 H         1 <0>         0.3646
     41 H13         1.2666   -2.6136    3.8850 H         1 <0>         0.0894
     42 H14        -0.0753   -3.7711    3.7112 H         1 <0>         0.0973
     43 H15         0.7121   -3.5207    6.0916 H         1 <0>         0.1085
     44 H16         0.8630   -5.1874    5.4781 H         1 <0>         0.0929
     45 H17         4.6145   -4.6004    4.9883 H         1 <0>         0.1061
     46 H18         3.4068   -5.8911    4.7584 H         1 <0>         0.0944
     47 H19         3.9054   -4.8709    2.5858 H         1 <0>         0.0932
     48 H20         3.5645   -3.2486    3.2361 H         1 <0>         0.0902
     49 H21         5.2565   -5.3469    8.1185 H         1 <0>         0.1472
     50 H22         4.9254   -6.8504   10.0608 H         1 <0>         0.1486
     51 H23         2.6435   -6.7205   11.2689 H         1 <0>         0.1996
     52 H24         1.2268   -4.4399   -0.2918 H         1 <0>         0.4243
@<TRIPOS>BOND
     1    1    6 ar
     2    1    2 ar
     3    1   29 1
     4    2    3 ar
     5    2   30 1
     6    3    4 ar
     7    3   31 1
     8    4    5 ar
     9    4   28 1
    10    5    6 ar
    11    5    7 1
    12    6   32 1
    13    7    8 1
    14    7   33 1
    15    7   34 1
    16    8    9 1
    17    8   35 1
    18    9   14 1
    19    9   10 2
    20   10   11 1
    21   10   52 1
    22   11   12 1
    23   11   36 1
    24   11   37 1
    25   12   13 1
    26   12   38 1
    27   12   39 1
    28   13   14 1
    29   13   40 1
    30   14   19 1
    31   14   15 1
    32   15   16 1
    33   15   41 1
    34   15   42 1
    35   16   17 1
    36   16   43 1
    37   16   44 1
    38   17   18 1
    39   17   20 1
    40   18   19 1
    41   18   45 1
    42   18   46 1
    43   19   47 1
    44   19   48 1
    45   20   21 2
    46   20   22 2
    47   20   23 1
    48   23   27 1
    49   23   24 2
    50   24   25 1
    51   24   49 1
    52   25   26 2
    53   25   50 1
    54   26   27 1
    55   26   51 1
@<TRIPOS>MOLECULE
ZINC66976173
   66    68     0     0     0
SMALL
USER_CHARGES

@<TRIPOS>ATOM
      1 C1         -0.0129    1.5229    0.0057 C.3       1 <0>        -0.1894
      2 C2          0.0076   -0.0070   -0.0018 C.3       1 <0>        -0.0111
      3 N1          0.7169   -0.4930    1.1893 N.4       1 <0>        -0.3854
      4 C3         -0.0325   -0.1122    2.3926 C.3       1 <0>        -0.0057
      5 C4          0.7424   -0.5450    3.6390 C.3       1 <0>        -0.1555
      6 C5          0.9322   -2.0644    3.6134 C.3       1 <0>         0.1535
      7 C6          1.6492   -2.4577    2.3186 C.3       1 <0>        -0.1609
      8 C7          0.8406   -1.9540    1.1211 C.3       1 <0>        -0.0023
      9 N2          1.7389   -2.4768    4.7647 N.am      1 <0>        -0.7462
     10 C8          1.6318   -3.7303    5.2483 C.2       1 <0>         0.7104
     11 O1          0.8008   -4.4900    4.7893 O.2       1 <0>        -0.5811
     12 N3          2.4458   -4.1416    6.2405 N.am      1 <0>        -0.6237
     13 C9          3.3745   -3.2028    6.8846 C.3       1 <0>         0.1155
     14 C10         4.7879   -3.7909    6.8287 C.3       1 <0>        -0.1425
     15 C11         4.7787   -5.1904    7.4481 C.3       1 <0>         0.1455
     16 C12         3.8452   -6.0993    6.6452 C.3       1 <0>        -0.1441
     17 C13         2.4172   -5.5360    6.7028 C.3       1 <0>         0.1300
     18 N4          6.1354   -5.7427    7.4263 N.am      1 <0>        -0.7339
     19 C14         6.4935   -6.6857    8.3201 C.2       1 <0>         0.5148
     20 O2          5.6926   -7.0771    9.1425 O.2       1 <0>        -0.5273
     21 C15         7.8891   -7.2539    8.2978 C.3       1 <0>        -0.1386
     22 C16         8.0327   -8.2976    9.4072 C.3       1 <0>        -0.0710
     23 C17         7.8951   -7.6157   10.7699 C.3       1 <0>        -0.1184
     24 C18         8.0387   -8.6595   11.8793 C.3       1 <0>        -0.1185
     25 C19         9.4126   -9.3252   11.7786 C.3       1 <0>        -0.1219
     26 C20         9.5502  -10.0071   10.4159 C.3       1 <0>        -0.1199
     27 C21         9.4066   -8.9633    9.3064 C.3       1 <0>        -0.1152
     28 H1          1.0097    1.9000   -0.0013 H         1 <0>         0.0802
     29 H2         -0.5392    1.8835   -0.8781 H         1 <0>         0.1068
     30 H3         -0.5239    1.8750    0.9018 H         1 <0>         0.0804
     31 H4         -1.0150   -0.3841    0.0052 H         1 <0>         0.1301
     32 H5          0.5186   -0.3591   -0.8979 H         1 <0>         0.1313
     33 H6         -0.1696    0.9690    2.4077 H         1 <0>         0.1378
     34 H7         -1.0068   -0.6009    2.3831 H         1 <0>         0.1334
     35 H8          1.7168   -0.0566    3.6496 H         1 <0>         0.0930
     36 H9          0.1835   -0.2630    4.5313 H         1 <0>         0.1196
     37 H10        -0.0408   -2.5540    3.6545 H         1 <0>         0.1073
     38 H11         2.6424   -2.0090    2.3018 H         1 <0>         0.0887
     39 H12         1.7384   -3.5428    2.2671 H         1 <0>         0.1168
     40 H13        -0.1523   -2.4035    1.1388 H         1 <0>         0.1325
     41 H14         1.3482   -2.2325    0.1976 H         1 <0>         0.1339
     42 H15         2.3500   -1.8477    5.1790 H         1 <0>         0.4002
     43 H16         3.3544   -2.2492    6.3571 H         1 <0>         0.0785
     44 H17         3.0814   -3.0541    7.9239 H         1 <0>         0.0805
     45 H18         5.1147   -3.8546    5.7908 H         1 <0>         0.0732
     46 H19         5.4708   -3.1505    7.3870 H         1 <0>         0.0868
     47 H20         4.4282   -5.1292    8.4784 H         1 <0>         0.0926
     48 H21         4.1809   -6.1412    5.6090 H         1 <0>         0.0682
     49 H22         3.8572   -7.1018    7.0728 H         1 <0>         0.0860
     50 H23         2.0476   -5.5737    7.7275 H         1 <0>         0.0753
     51 H24         1.7652   -6.1223    6.0552 H         1 <0>         0.0995
     52 H25         6.7760   -5.4296    6.7686 H         1 <0>         0.3998
     53 H26         8.0751   -7.7228    7.3315 H         1 <0>         0.0934
     54 H27         8.6103   -6.4523    8.4574 H         1 <0>         0.0936
     55 H28         7.2542   -9.0528    9.2985 H         1 <0>         0.0781
     56 H29         8.6736   -6.8605   10.8785 H         1 <0>         0.0538
     57 H30         6.9163   -7.1415   10.8417 H         1 <0>         0.0786
     58 H31         7.9407   -8.1737   12.8501 H         1 <0>         0.0600
     59 H32         7.2602   -9.4146   11.7707 H         1 <0>         0.0616
     60 H33        10.1911   -8.5700   11.8872 H         1 <0>         0.0603
     61 H34         9.5149  -10.0687   12.5689 H         1 <0>         0.0610
     62 H35        10.5290  -10.4813   10.3441 H         1 <0>         0.0625
     63 H36         8.7717  -10.7622   10.3072 H         1 <0>         0.0620
     64 H37         9.5046   -9.4491    8.3356 H         1 <0>         0.0613
     65 H38        10.1851   -8.2081    9.4151 H         1 <0>         0.0624
     66 H39         1.6368   -0.0798    1.2237 H         1 <0>         0.4219
@<TRIPOS>BOND
     1    1    2 1
     2    1   28 1
     3    1   29 1
     4    1   30 1
     5    2    3 1
     6    2   31 1
     7    2   32 1
     8    3    8 1
     9    3    4 1
    10    3   66 1
    11    4    5 1
    12    4   33 1
    13    4   34 1
    14    5    6 1
    15    5   35 1
    16    5   36 1
    17    6    7 1
    18    6    9 1
    19    6   37 1
    20    7    8 1
    21    7   38 1
    22    7   39 1
    23    8   40 1
    24    8   41 1
    25    9   10 am
    26    9   42 1
    27   10   11 2
    28   10   12 am
    29   12   17 1
    30   12   13 1
    31   13   14 1
    32   13   43 1
    33   13   44 1
    34   14   15 1
    35   14   45 1
    36   14   46 1
    37   15   16 1
    38   15   18 1
    39   15   47 1
    40   16   17 1
    41   16   48 1
    42   16   49 1
    43   17   50 1
    44   17   51 1
    45   18   19 am
    46   18   52 1
    47   19   20 2
    48   19   21 1
    49   21   22 1
    50   21   53 1
    51   21   54 1
    52   22   27 1
    53   22   23 1
    54   22   55 1
    55   23   24 1
    56   23   56 1
    57   23   57 1
    58   24   25 1
    59   24   58 1
    60   24   59 1
    61   25   26 1
    62   25   60 1
    63   25   61 1
    64   26   27 1
    65   26   62 1
    66   26   63 1
    67   27   64 1
    68   27   65 1
@<TRIPOS>MOLECULE
ZINC13693677
   47    51     0     0     0
SMALL
USER_CHARGES
2-(benzyl-oxo-BLAHyl)acetamide
@<TRIPOS>ATOM
      1 C1         -6.2592    2.4596   -3.9520 C.ar      1 <0>        -0.1155
      2 C2         -6.0105    1.2612   -3.3096 C.ar      1 <0>        -0.1215
      3 C3         -5.5365    1.2584   -2.0110 C.ar      1 <0>        -0.1039
      4 C4         -5.3111    2.4541   -1.3550 C.ar      1 <0>        -0.0913
      5 C5         -5.5647    3.6525   -1.9956 C.ar      1 <0>        -0.0995
      6 C6         -6.0338    3.6553   -3.2959 C.ar      1 <0>        -0.1221
      7 C7         -4.7947    2.4511    0.0608 C.3       1 <0>         0.0128
      8 C8         -3.2879    2.4656    0.0460 C.2       1 <0>         0.2615
      9 N1         -2.5299    3.5612    0.0445 N.2       1 <0>        -0.5013
     10 C9         -1.2592    3.2165    0.0303 C.2       1 <0>         0.3656
     11 C10        -0.0044    4.0059    0.0220 C.2       1 <0>        -0.1300
     12 C11         0.1595    5.4590    0.0267 C.2       1 <0>        -0.0419
     13 C12         1.4240    5.9321    0.0161 C.2       1 <0>        -0.1635
     14 S1          2.4489    4.4860    0.0006 S.3       1 <0>         0.1618
     15 C13         1.1697    3.2568    0.0073 C.2       1 <0>         0.0923
     16 N2          1.1509    1.8887    0.0012 N.am      1 <0>        -0.4684
     17 C14        -0.0144    1.2119    0.0087 C.2       1 <0>         0.7344
     18 O1          0.0021   -0.0041    0.0020 O.2       1 <0>        -0.4936
     19 N3         -1.1932    1.8543    0.0178 N.am      1 <0>        -0.3716
     20 N4         -2.5232    1.4044    0.0330 N.2       1 <0>        -0.2634
     21 C15         2.4154    1.1491   -0.0131 C.3       1 <0>         0.0876
     22 C16         2.8364    0.9016   -1.4388 C.2       1 <0>         0.5023
     23 O2          2.1480    1.3033   -2.3529 O.2       1 <0>        -0.5210
     24 N5          3.9780    0.2337   -1.6980 N.am      1 <0>        -0.8441
     25 C17         1.8573    7.3658    0.0170 C.3       1 <0>        -0.0364
     26 C18         0.6452    8.2379   -0.3414 C.3       1 <0>        -0.1158
     27 C19        -0.5496    7.7911    0.5059 C.3       1 <0>        -0.1223
     28 C20        -1.0299    6.4151    0.0437 C.3       1 <0>        -0.0598
     29 H1         -6.6298    2.4618   -4.9664 H         1 <0>         0.1223
     30 H2         -6.1869    0.3270   -3.8220 H         1 <0>         0.1233
     31 H3         -5.3425    0.3221   -1.5090 H         1 <0>         0.1245
     32 H4         -5.3928    4.5866   -1.4815 H         1 <0>         0.1271
     33 H5         -6.2284    4.5917   -3.7978 H         1 <0>         0.1238
     34 H6         -5.1444    1.5548    0.5732 H         1 <0>         0.1052
     35 H7         -5.1615    3.3347    0.5832 H         1 <0>         0.1110
     36 H8          3.1829    1.7318    0.4964 H         1 <0>         0.1324
     37 H9          2.2843    0.1953    0.4979 H         1 <0>         0.1442
     38 H10         4.5286   -0.0876   -0.9670 H         1 <0>         0.4059
     39 H11         4.2490    0.0743   -2.6157 H         1 <0>         0.4109
     40 H12         2.2254    7.6375    1.0063 H         1 <0>         0.0884
     41 H13         2.6461    7.5114   -0.7210 H         1 <0>         0.0856
     42 H14         0.8720    9.2831   -0.1313 H         1 <0>         0.0777
     43 H15         0.4104    8.1203   -1.3993 H         1 <0>         0.0710
     44 H16        -0.2511    7.7371    1.5529 H         1 <0>         0.0678
     45 H17        -1.3602    8.5116    0.3973 H         1 <0>         0.0742
     46 H18        -1.4500    6.4935   -0.9590 H         1 <0>         0.0838
     47 H19        -1.7886    6.0421    0.7317 H         1 <0>         0.0899
@<TRIPOS>BOND
     1    1    6 ar
     2    1    2 ar
     3    1   29 1
     4    2    3 ar
     5    2   30 1
     6    3    4 ar
     7    3   31 1
     8    4    5 ar
     9    4    7 1
    10    5    6 ar
    11    5   32 1
    12    6   33 1
    13    7    8 1
    14    7   34 1
    15    7   35 1
    16    8   20 2
    17    8    9 1
    18    9   10 2
    19   10   19 1
    20   10   11 1
    21   11   15 2
    22   11   12 1
    23   12   28 1
    24   12   13 2
    25   13   14 1
    26   13   25 1
    27   14   15 1
    28   15   16 1
    29   16   17 am
    30   16   21 1
    31   17   18 2
    32   17   19 am
    33   19   20 1
    34   21   22 1
    35   21   36 1
    36   21   37 1
    37   22   23 2
    38   22   24 am
    39   24   38 1
    40   24   39 1
    41   25   26 1
    42   25   40 1
    43   25   41 1
    44   26   27 1
    45   26   42 1
    46   26   43 1
    47   27   28 1
    48   27   44 1
    49   27   45 1
    50   28   46 1
    51   28   47 1
@<TRIPOS>MOLECULE
ZINC33113056
   49    51     0     0     0
SMALL
USER_CHARGES
N-(4-fluorophenyl)-5-[(3S)-1-(propylcarbamoyl)-3-piperidyl]-1,3,4-thiadiazole-2-carboxamide
@<TRIPOS>ATOM
      1 C1         -5.8292    6.0501    2.9648 C.3       1 <0>        -0.1525
      2 C2         -4.4961    5.3007    2.9158 C.3       1 <0>        -0.1348
      3 C3         -4.1193    5.0251    1.4588 C.3       1 <0>         0.1366
      4 N1         -2.8429    4.3076    1.4118 N.am      1 <0>        -0.7565
      5 C4         -2.3103    3.9567    0.2245 C.2       1 <0>         0.7095
      6 O1         -2.8407    4.3149   -0.8093 O.2       1 <0>        -0.5882
      7 N2         -1.1899    3.2088    0.1831 N.am      1 <0>        -0.6292
      8 C5         -0.4756    2.8616    1.4192 C.3       1 <0>         0.1085
      9 C6         -0.2953    1.3412    1.4737 C.3       1 <0>        -0.1341
     10 C7          0.3970    0.8674    0.1937 C.3       1 <0>        -0.1096
     11 C8         -0.4767    1.2069   -1.0161 C.3       1 <0>        -0.0100
     12 H1         -1.4558    0.7144   -0.9224 H         1 <0>         0.1077
     13 C9         -0.6593    2.7257   -1.0989 C.3       1 <0>         0.1409
     14 C10         0.1900    0.7105   -2.2731 C.2       1 <0>         0.0577
     15 N3          1.3683    1.0277   -2.7812 N.2       1 <0>        -0.2810
     16 N4          1.7925    0.5200   -3.8563 N.2       1 <0>        -0.2179
     17 C11         1.0512   -0.3641   -4.5183 C.2       1 <0>        -0.0288
     18 S1         -0.3784   -0.4413   -3.4457 S.3       1 <0>         0.1526
     19 C12         1.3305   -1.0802   -5.7746 C.2       1 <0>         0.6212
     20 O2          0.5127   -1.8598   -6.2249 O.2       1 <0>        -0.4979
     21 N5          2.4923   -0.8718   -6.4251 N.am      1 <0>        -0.6587
     22 C13         2.7131   -1.4686   -7.6713 C.ar      1 <0>         0.1381
     23 C14         3.9948   -1.8569   -8.0390 C.ar      1 <0>        -0.1097
     24 C15         4.2097   -2.4506   -9.2673 C.ar      1 <0>        -0.1322
     25 C16         3.1500   -2.6491  -10.1364 C.ar      1 <0>         0.0872
     26 C17         1.8721   -2.2574   -9.7741 C.ar      1 <0>        -0.1314
     27 C18         1.6519   -1.6682   -8.5446 C.ar      1 <0>        -0.0937
     28 F1          3.3632   -3.2253  -11.3396 F         1 <0>        -0.1375
     29 H2         -6.1001    6.2483    4.0123 H         1 <0>         0.0613
     30 H3         -6.6117    5.4375    2.4932 H         1 <0>         0.0587
     31 H4         -5.7341    7.0033    2.4240 H         1 <0>         0.0590
     32 H5         -3.7136    5.9133    3.3874 H         1 <0>         0.0689
     33 H6         -4.5912    4.3475    3.4566 H         1 <0>         0.0685
     34 H7         -4.9019    4.4125    0.9873 H         1 <0>         0.0642
     35 H8         -4.0243    5.9783    0.9180 H         1 <0>         0.0659
     36 H9         -2.3191    4.0552    2.3456 H         1 <0>         0.4129
     37 H10         0.5078    3.3543    1.4251 H         1 <0>         0.0772
     38 H11        -1.0601    3.1993    2.2877 H         1 <0>         0.0818
     39 H12         0.3211    1.0761    2.3453 H         1 <0>         0.0882
     40 H13        -1.2797    0.8581    1.5602 H         1 <0>         0.0735
     41 H14         1.3702    1.3707    0.0954 H         1 <0>         0.0844
     42 H15         0.5502   -0.2209    0.2409 H         1 <0>         0.0747
     43 H16        -1.3660    2.9730   -1.9048 H         1 <0>         0.1007
     44 H17         0.3090    3.2073   -1.2998 H         1 <0>         0.0833
     45 H18         3.2669   -0.2326   -5.9764 H         1 <0>         0.4517
     46 H19         4.8223   -1.6982   -7.3633 H         1 <0>         0.1401
     47 H20         5.2056   -2.7565   -9.5520 H         1 <0>         0.1425
     48 H21         1.0472   -2.4125  -10.4537 H         1 <0>         0.1415
     49 H22         0.6552   -1.3625   -8.2626 H         1 <0>         0.1446
@<TRIPOS>BOND
     1    1    2 1
     2    1   29 1
     3    1   30 1
     4    1   31 1
     5    2    3 1
     6    2   32 1
     7    2   33 1
     8    3    4 1
     9    3   34 1
    10    3   35 1
    11    4    5 am
    12    4   36 1
    13    5    6 2
    14    5    7 am
    15    7   13 1
    16    7    8 1
    17    8    9 1
    18    8   37 1
    19    8   38 1
    20    9   10 1
    21    9   39 1
    22    9   40 1
    23   10   11 1
    24   10   41 1
    25   10   42 1
    26   11   12 1
    27   11   13 1
    28   11   14 1
    29   13   43 1
    30   13   44 1
    31   14   18 1
    32   14   15 2
    33   15   16 1
    34   16   17 2
    35   17   18 1
    36   17   19 1
    37   19   20 2
    38   19   21 am
    39   21   22 1
    40   21   45 1
    41   22   27 ar
    42   22   23 ar
    43   23   24 ar
    44   23   46 1
    45   24   25 ar
    46   24   47 1
    47   25   26 ar
    48   25   28 1
    49   26   27 ar
    50   26   48 1
    51   27   49 1
@<TRIPOS>MOLECULE
ZINC41907742
   60    63     0     0     0
SMALL
USER_CHARGES

@<TRIPOS>ATOM
      1 C1         -0.0184    1.5028    0.0103 C.3       1 <0>        -0.1108
      2 C2          0.0021   -0.0041    0.0020 C.2       1 <0>         0.1968
      3 C3         -1.2039   -0.7187    0.0038 C.2       1 <0>        -0.1591
      4 C4         -1.1760   -2.0745   -0.0041 C.2       1 <0>         0.1447
      5 N1          0.0313   -2.7130   -0.0138 N.pl3     1 <0>        -0.4040
      6 C5          0.3850   -4.0286   -0.0224 C.2       1 <0>         0.1535
      7 N2          1.6820   -4.1344   -0.0289 N.2       1 <0>        -0.4071
      8 C6          2.2393   -2.9052   -0.0250 C.2       1 <0>        -0.0540
      9 C7          1.1900   -1.9768   -0.0152 C.2       1 <0>         0.2467
     10 N3          1.1505   -0.6431   -0.0124 N.2       1 <0>        -0.4230
     11 C8          3.6699   -2.5997   -0.0299 C.2       1 <0>         0.6087
     12 O1          4.0451   -1.4413   -0.0251 O.2       1 <0>        -0.5274
     13 N4          4.5727   -3.6004   -0.0399 N.am      1 <0>        -0.8441
     14 C9         -2.4588   -2.8653   -0.0019 C.3       1 <0>        -0.1243
     15 C10        -2.5209    0.0138    0.0151 C.3       1 <0>        -0.0537
     16 C11        -2.8981    0.3628    1.4562 C.3       1 <0>        -0.1416
     17 C12        -4.2150    1.0953    1.4674 C.2       1 <0>         0.5168
     18 O2         -4.7948    1.3164    0.4254 O.2       1 <0>        -0.5281
     19 N5         -4.7485    1.5047    2.6354 N.am      1 <0>        -0.6078
     20 C13        -4.0595    1.2525    3.9104 C.3       1 <0>         0.1033
     21 C14        -5.0222    0.5476    4.8699 C.3       1 <0>        -0.1310
     22 C15        -6.3136    1.3615    4.9961 C.3       1 <0>        -0.0880
     23 H1         -6.9924    0.8627    5.6879 H         1 <0>         0.0748
     24 C16        -6.9741    1.4712    3.6228 C.3       1 <0>        -0.0925
     25 H2         -7.1677    0.4716    3.2336 H         1 <0>         0.0727
     26 C17        -6.0291    2.2192    2.6696 C.3       1 <0>         0.1501
     27 H3         -5.8698    3.2344    3.0331 H         1 <0>         0.0749
     28 C18        -6.6554    2.2657    1.2767 C.3       1 <0>        -0.1051
     29 C19        -7.9841    3.0235    1.3520 C.3       1 <0>        -0.1278
     30 C20        -8.9305    2.3172    2.3236 C.3       1 <0>        -0.1218
     31 C21        -8.2897    2.2427    3.7162 C.3       1 <0>        -0.1131
     32 C22        -5.9865    2.7611    5.5206 C.3       1 <0>        -0.1552
     33 H4          1.0042    1.8801    0.0026 H         1 <0>         0.0896
     34 H5         -0.5455    1.8639   -0.8728 H         1 <0>         0.0915
     35 H6         -0.5286    1.8543    0.9071 H         1 <0>         0.0871
     36 H7         -0.3064   -4.8582   -0.0230 H         1 <0>         0.2206
     37 H8          4.2738   -4.5232   -0.0438 H         1 <0>         0.4070
     38 H9          5.5213   -3.3978   -0.0432 H         1 <0>         0.4053
     39 H10        -2.7735   -3.0501   -1.0290 H         1 <0>         0.0984
     40 H11        -2.2983   -3.8165    0.5056 H         1 <0>         0.0848
     41 H12        -3.2324   -2.3014    0.5193 H         1 <0>         0.0999
     42 H13        -2.4322    0.9297   -0.5693 H         1 <0>         0.0973
     43 H14        -3.2934   -0.6209   -0.4192 H         1 <0>         0.0913
     44 H15        -2.9867   -0.5531    2.0405 H         1 <0>         0.0934
     45 H16        -2.1256    0.9975    1.8904 H         1 <0>         0.0972
     46 H17        -3.1901    0.6188    3.7357 H         1 <0>         0.0842
     47 H18        -3.7399    2.1995    4.3454 H         1 <0>         0.0745
     48 H19        -5.2554   -0.4453    4.4851 H         1 <0>         0.0669
     49 H20        -4.5545    0.4552    5.8501 H         1 <0>         0.0780
     50 H21        -5.9814    2.7787    0.5907 H         1 <0>         0.0882
     51 H22        -6.8342    1.2502    0.9231 H         1 <0>         0.0703
     52 H23        -7.8019    4.0406    1.6988 H         1 <0>         0.0587
     53 H24        -8.4393    3.0557    0.3621 H         1 <0>         0.0647
     54 H25        -9.8678    2.8704    2.3826 H         1 <0>         0.0621
     55 H26        -9.1293    1.3071    1.9656 H         1 <0>         0.0599
     56 H27        -8.9633    1.7330    4.4051 H         1 <0>         0.0655
     57 H28        -8.0951    3.2534    4.0751 H         1 <0>         0.0663
     58 H29        -5.3095    3.2599    4.8272 H         1 <0>         0.0578
     59 H30        -6.9060    3.3396    5.6101 H         1 <0>         0.0597
     60 H31        -5.5112    2.6808    6.4982 H         1 <0>         0.0561
@<TRIPOS>BOND
     1    1    2 1
     2    1   33 1
     3    1   34 1
     4    1   35 1
     5    2   10 2
     6    2    3 1
     7    3    4 2
     8    3   15 1
     9    4    5 1
    10    4   14 1
    11    5    9 1
    12    5    6 1
    13    6    7 2
    14    6   36 1
    15    7    8 1
    16    8    9 2
    17    8   11 1
    18    9   10 1
    19   11   12 2
    20   11   13 am
    21   13   37 1
    22   13   38 1
    23   14   39 1
    24   14   40 1
    25   14   41 1
    26   15   16 1
    27   15   42 1
    28   15   43 1
    29   16   17 1
    30   16   44 1
    31   16   45 1
    32   17   18 2
    33   17   19 am
    34   19   26 1
    35   19   20 1
    36   20   21 1
    37   20   46 1
    38   20   47 1
    39   21   22 1
    40   21   48 1
    41   21   49 1
    42   22   23 1
    43   22   24 1
    44   22   32 1
    45   24   25 1
    46   24   31 1
    47   24   26 1
    48   26   27 1
    49   26   28 1
    50   28   29 1
    51   28   50 1
    52   28   51 1
    53   29   30 1
    54   29   52 1
    55   29   53 1
    56   30   31 1
    57   30   54 1
    58   30   55 1
    59   31   56 1
    60   31   57 1
    61   32   58 1
    62   32   59 1
    63   32   60 1
@<TRIPOS>MOLECULE
ZINC58887892
   51    54     0     0     0
SMALL
USER_CHARGES

@<TRIPOS>ATOM
      1 C1         -0.0407    1.3721   -0.6748 C.3       1 <0>         0.0257
      2 O1         -0.0135   -0.0389   -0.4502 O.3       1 <0>        -0.3186
      3 C2         -1.2110   -0.6597   -0.2774 C.ar      1 <0>         0.1448
      4 C3         -2.3863    0.0720   -0.3286 C.ar      1 <0>        -0.2041
      5 C4         -3.6029   -0.5605   -0.1522 C.ar      1 <0>        -0.0022
      6 C5         -3.6511   -1.9235    0.0757 C.ar      1 <0>        -0.6889
      7 C6         -2.4831   -2.6605    0.1277 C.ar      1 <0>        -0.0342
      8 C7         -1.2592   -2.0337   -0.0541 C.ar      1 <0>         0.1234
      9 N1         -0.0736   -2.7800   -0.0071 N.am      1 <0>        -0.6706
     10 C8         -0.1263   -4.1237    0.0828 C.2       1 <0>         0.7146
     11 O2         -1.2017   -4.6911    0.0855 O.2       1 <0>        -0.5621
     12 N2          1.0130   -4.8385    0.1695 N.am      1 <0>        -0.6218
     13 C9          0.9959   -6.3107    0.1588 C.3       1 <0>         0.1274
     14 C10         1.7251   -6.7797   -1.0992 C.3       1 <0>        -0.1001
     15 C11         3.0346   -6.0538   -1.2619 C.ar      1 <0>        -0.0662
     16 C12         3.9972   -6.6362   -2.0778 C.ar      1 <0>        -0.1188
     17 C13         5.2144   -6.0193   -2.2772 C.ar      1 <0>        -0.1137
     18 C14         5.4813   -4.8099   -1.6625 C.ar      1 <0>        -0.1195
     19 C15         4.5289   -4.2311   -0.8493 C.ar      1 <0>        -0.1120
     20 C16         3.3055   -4.8542   -0.6431 C.ar      1 <0>        -0.1020
     21 C17         2.3201   -4.1809    0.2722 C.3       1 <0>         0.1517
     22 S1         -5.2053   -2.7225    0.3007 S.o2      1 <0>         2.7005
     23 O3         -4.9489   -3.9084    1.0404 O.2       1 <0>        -0.9463
     24 O4         -6.1131   -1.7258    0.7499 O.2       1 <0>        -0.9591
     25 N3         -5.7306   -3.2016   -1.1948 N.pl3     1 <0>        -1.0873
     26 C18        -4.9831   -4.2147   -1.9439 C.3       1 <0>         0.0822
     27 C19        -4.9560   -4.0891   -3.4685 C.3       1 <0>        -0.1895
     28 C20        -5.7858   -5.1909   -2.8063 C.3       1 <0>        -0.1836
     29 H1          0.9779    1.7404   -0.7963 H         1 <0>         0.1059
     30 H2         -0.6142    1.5854   -1.5770 H         1 <0>         0.0613
     31 H3         -0.5068    1.8667    0.1773 H         1 <0>         0.0618
     32 H4         -2.3521    1.1368   -0.5060 H         1 <0>         0.1430
     33 H5         -4.5181    0.0116   -0.1921 H         1 <0>         0.1435
     34 H6         -2.5237   -3.7250    0.3058 H         1 <0>         0.2058
     35 H7          0.7847   -2.3293   -0.0392 H         1 <0>         0.4133
     36 H8          1.5051   -6.6918    1.0440 H         1 <0>         0.0790
     37 H9         -0.0340   -6.6674    0.1427 H         1 <0>         0.1064
     38 H10         1.9156   -7.8504   -1.0251 H         1 <0>         0.0913
     39 H11         1.0981   -6.5874   -1.9698 H         1 <0>         0.0828
     40 H12         3.7904   -7.5804   -2.5595 H         1 <0>         0.1238
     41 H13         5.9572   -6.4798   -2.9116 H         1 <0>         0.1243
     42 H14         6.4312   -4.3202   -1.8185 H         1 <0>         0.1252
     43 H15         4.7368   -3.2863   -0.3692 H         1 <0>         0.1243
     44 H16         2.2219   -3.1326   -0.0097 H         1 <0>         0.0853
     45 H17         2.6800   -4.2475    1.2989 H         1 <0>         0.0879
     46 H18        -6.5333   -2.8115   -1.5749 H         1 <0>         0.4185
     47 H19        -4.0870   -4.5956   -1.4539 H         1 <0>         0.1408
     48 H20        -5.4943   -3.2526   -3.9142 H         1 <0>         0.0988
     49 H21        -4.0418   -4.3872   -3.9818 H         1 <0>         0.1021
     50 H22        -5.4175   -6.2138   -2.8841 H         1 <0>         0.1050
     51 H23        -6.8700   -5.0793   -2.8164 H         1 <0>         0.1001
@<TRIPOS>BOND
     1    1    2 1
     2    1   29 1
     3    1   30 1
     4    1   31 1
     5    2    3 1
     6    3    8 ar
     7    3    4 ar
     8    4    5 ar
     9    4   32 1
    10    5    6 ar
    11    5   33 1
    12    6    7 ar
    13    6   22 1
    14    7    8 ar
    15    7   34 1
    16    8    9 1
    17    9   10 am
    18    9   35 1
    19   10   11 2
    20   10   12 am
    21   12   21 1
    22   12   13 1
    23   13   14 1
    24   13   36 1
    25   13   37 1
    26   14   15 1
    27   14   38 1
    28   14   39 1
    29   15   20 ar
    30   15   16 ar
    31   16   17 ar
    32   16   40 1
    33   17   18 ar
    34   17   41 1
    35   18   19 ar
    36   18   42 1
    37   19   20 ar
    38   19   43 1
    39   20   21 1
    40   21   44 1
    41   21   45 1
    42   22   23 2
    43   22   24 2
    44   22   25 1
    45   25   26 1
    46   25   46 1
    47   26   28 1
    48   26   27 1
    49   26   47 1
    50   27   28 1
    51   27   48 1
    52   27   49 1
    53   28   50 1
    54   28   51 1
@<TRIPOS>MOLECULE
ZINC35323973
   40    42     0     0     0
SMALL
USER_CHARGES

@<TRIPOS>ATOM
      1 C1         -0.0187    1.5258    0.0104 C.3       1 <0>        -0.1531
      2 C2          0.0021   -0.0041    0.0020 C.3       1 <0>         0.0603
      3 O1          0.6932   -0.4774    1.1597 O.3       1 <0>        -0.3471
      4 C3          0.8006   -1.8076    1.3039 C.2       1 <0>         0.4635
      5 O2          0.3237   -2.5457    0.4746 O.2       1 <0>        -0.4869
      6 C4          1.5162   -2.3806    2.5000 C.3       1 <0>        -0.0587
      7 C5          1.4965   -3.8855    2.4238 C.2       1 <0>         0.1424
      8 C6          2.3703   -4.6562    1.7589 C.2       1 <0>        -0.2441
      9 C7          1.9946   -6.0051    1.9431 C.2       1 <0>         0.2851
     10 N1          0.9327   -6.0281    2.6951 N.2       1 <0>        -0.2448
     11 N2          0.5977   -4.7037    3.0186 N.pl3     1 <0>        -0.4525
     12 H1         -0.1492   -4.4238    3.5706 H         1 <0>         0.4511
     13 O3          2.6913   -7.0305    1.3839 O.3       1 <0>        -0.2103
     14 C8          3.5902   -6.7217    0.4282 C.2       1 <0>         0.4598
     15 C9          4.0332   -5.4737    0.1690 C.2       1 <0>        -0.2764
     16 C10         3.5688   -4.2607    0.9346 C.3       1 <0>         0.1144
     17 H2          3.2915   -3.4693    0.2383 H         1 <0>         0.1055
     18 C11         4.6725   -3.7788    1.8405 C.ar      1 <0>        -0.0625
     19 C12         5.2011   -4.6256    2.7981 C.ar      1 <0>        -0.0111
     20 C13         6.2144   -4.1826    3.6295 C.ar      1 <0>        -0.1031
     21 C14         6.6983   -2.8939    3.5036 C.ar      1 <0>        -0.0946
     22 C15         6.1705   -2.0473    2.5470 C.ar      1 <0>        -0.1015
     23 C16         5.1614   -2.4912    1.7109 C.ar      1 <0>        -0.0278
     24 Cl1         4.5040   -1.4303    0.5043 Cl        1 <0>        -0.0519
     25 Cl2         4.5928   -6.2438    2.9570 Cl        1 <0>        -0.0445
     26 C17         4.9887   -5.2930   -0.8821 C.1       1 <0>         0.2707
     27 N3          5.7468   -5.1496   -1.7160 N.1       1 <0>        -0.4397
     28 N4          4.0900   -7.7480   -0.3341 N.pl3     1 <0>        -0.8278
     29 H3          1.0039    1.9031    0.0027 H         1 <0>         0.0680
     30 H4         -0.5459    1.8868   -0.8726 H         1 <0>         0.0813
     31 H5         -0.5289    1.8773    0.9072 H         1 <0>         0.0679
     32 H6         -1.0205   -0.3814    0.0098 H         1 <0>         0.0695
     33 H7          0.5123   -0.3556   -0.8948 H         1 <0>         0.0696
     34 H8          2.5484   -2.0306    2.5079 H         1 <0>         0.1328
     35 H9          1.0156   -2.0564    3.4125 H         1 <0>         0.1290
     36 H10         6.6272   -4.8436    4.3771 H         1 <0>         0.1410
     37 H11         7.4887   -2.5483    4.1533 H         1 <0>         0.1438
     38 H12         6.5487   -1.0404    2.4494 H         1 <0>         0.1427
     39 H13         3.7945   -8.6582   -0.1757 H         1 <0>         0.4125
     40 H14         4.7387   -7.5630   -1.0311 H         1 <0>         0.4274
@<TRIPOS>BOND
     1    1    2 1
     2    1   29 1
     3    1   30 1
     4    1   31 1
     5    2    3 1
     6    2   32 1
     7    2   33 1
     8    3    4 1
     9    4    5 2
    10    4    6 1
    11    6    7 1
    12    6   34 1
    13    6   35 1
    14    7   11 1
    15    7    8 2
    16    8   16 1
    17    8    9 1
    18    9   10 2
    19    9   13 1
    20   10   11 1
    21   11   12 1
    22   13   14 1
    23   14   15 2
    24   14   28 1
    25   15   16 1
    26   15   26 1
    27   16   17 1
    28   16   18 1
    29   18   23 ar
    30   18   19 ar
    31   19   20 ar
    32   19   25 1
    33   20   21 ar
    34   20   36 1
    35   21   22 ar
    36   21   37 1
    37   22   23 ar
    38   22   38 1
    39   23   24 1
    40   26   27 3
    41   28   39 1
    42   28   40 1
@<TRIPOS>MOLECULE
ZINC03082819
   31    31     0     0     0
SMALL
USER_CHARGES
N-(carbamoylmethyl)-2-(4-iodophenyl)sulfonylamino-acetamide
@<TRIPOS>ATOM
      1 C1         -0.7171    3.1447    2.0037 C.ar      1 <0>        -0.0181
      2 C2         -1.4345    3.5264    3.1218 C.ar      1 <0>        -0.1058
      3 C3         -2.3543    2.6590    3.6824 C.ar      1 <0>        -0.0498
      4 C4         -2.5598    1.4120    3.1210 C.ar      1 <0>        -0.1058
      5 C5         -1.8458    1.0328    1.9998 C.ar      1 <0>        -0.0113
      6 C6         -0.9267    1.9002    1.4394 C.ar      1 <0>        -0.6663
      7 S1         -0.0172    1.4168    0.0098 S.o2      1 <0>         2.6996
      8 O1          0.0021   -0.0041    0.0020 O.2       1 <0>        -0.9445
      9 O2          1.1718    2.1948    0.0027 O.2       1 <0>        -0.9475
     10 N1         -0.8975    1.8855   -1.3122 N.pl3     1 <0>        -1.1046
     11 C7         -1.1248    3.3089   -1.5738 C.3       1 <0>         0.0971
     12 C8         -1.6142    3.4879   -2.9878 C.2       1 <0>         0.5188
     13 O3         -1.7590    2.5216   -3.7063 O.2       1 <0>        -0.5273
     14 N2         -1.8911    4.7218   -3.4540 N.am      1 <0>        -0.7163
     15 C9         -2.3670    4.8958   -4.8286 C.3       1 <0>         0.0972
     16 C10        -2.6008    6.3600   -5.0976 C.2       1 <0>         0.5140
     17 O4         -2.3906    7.1777   -4.2269 O.2       1 <0>        -0.5387
     18 N3         -3.0434    6.7609   -6.3059 N.am      1 <0>        -0.8471
     19 I1         -3.4367    3.2343    5.3813 I         1 <0>        -0.0218
     20 H1          0.0042    3.8204    1.5683 H         1 <0>         0.1515
     21 H2         -1.2741    4.5004    3.5598 H         1 <0>         0.1423
     22 H3         -3.2782    0.7345    3.5583 H         1 <0>         0.1419
     23 H4         -2.0062    0.0590    1.5613 H         1 <0>         0.1513
     24 H5         -1.2626    1.2175   -1.9134 H         1 <0>         0.4310
     25 H6         -1.8729    3.6910   -0.8792 H         1 <0>         0.1016
     26 H7         -0.1917    3.8563   -1.4402 H         1 <0>         0.1169
     27 H8         -1.7754    5.4946   -2.8793 H         1 <0>         0.4162
     28 H9         -1.6189    4.5136   -5.5231 H         1 <0>         0.1051
     29 H10        -3.3000    4.3483   -4.9621 H         1 <0>         0.1046
     30 H11        -3.2115    6.1069   -7.0023 H         1 <0>         0.4068
     31 H12        -3.1939    7.7033   -6.4791 H         1 <0>         0.4090
@<TRIPOS>BOND
     1    1    6 ar
     2    1    2 ar
     3    1   20 1
     4    2    3 ar
     5    2   21 1
     6    3    4 ar
     7    3   19 1
     8    4    5 ar
     9    4   22 1
    10    5    6 ar
    11    5   23 1
    12    6    7 1
    13    7    8 2
    14    7    9 2
    15    7   10 1
    16   10   11 1
    17   10   24 1
    18   11   12 1
    19   11   25 1
    20   11   26 1
    21   12   13 2
    22   12   14 am
    23   14   15 1
    24   14   27 1
    25   15   16 1
    26   15   28 1
    27   15   29 1
    28   16   17 2
    29   16   18 am
    30   18   30 1
    31   18   31 1
@<TRIPOS>MOLECULE
ZINC29007468
   46    48     0     0     0
SMALL
USER_CHARGES
5-[(1-oxo-2H-isoquinolin-3-yl)-(3-vinyloxypropylamino)methylene]-2-thioxo-hexahydropyrimidine-4,6-dione
@<TRIPOS>ATOM
      1 C1         -1.7173   -8.8797    1.3626 C.2       1 <0>        -0.2580
      2 C2         -1.4023   -7.6353    1.0678 C.2       1 <0>         0.0242
      3 O1         -2.3726   -6.6904    0.9891 O.3       1 <0>        -0.3289
      4 C3         -1.9592   -5.3615    0.6649 C.3       1 <0>         0.0652
      5 C4         -3.1822   -4.4431    0.6220 C.3       1 <0>        -0.1345
      6 C5         -2.7396   -3.0202    0.2750 C.3       1 <0>         0.0918
      7 N1         -3.9106   -2.1409    0.2339 N.pl3     1 <0>        -0.6585
      8 C6         -3.7522   -0.8009    0.0091 C.2       1 <0>         0.4080
      9 C7         -4.8562    0.0552    0.0782 C.2       1 <0>        -0.4168
     10 C8         -4.6998    1.5157    0.0045 C.2       1 <0>         0.5718
     11 O2         -3.5992    2.0205   -0.1192 O.2       1 <0>        -0.4807
     12 N2         -5.8086    2.2808    0.0727 N.am      1 <0>        -0.6299
     13 C9         -7.0261    1.7379    0.2147 C.2       1 <0>         0.5608
     14 S1         -8.3772    2.7858    0.3004 S.2       1 <0>        -0.5395
     15 N3         -7.2401    0.4169    0.2936 N.am      1 <0>        -0.6302
     16 C10        -6.2224   -0.4664    0.2337 C.2       1 <0>         0.5812
     17 O3         -6.4293   -1.6636    0.3068 O.2       1 <0>        -0.5154
     18 C11        -2.4235   -0.2613   -0.3045 C.2       1 <0>         0.1345
     19 C12        -2.1945    0.2485   -1.5448 C.2       1 <0>        -0.1059
     20 C13        -0.8747    0.7883   -1.8659 C.ar      1 <0>        -0.0022
     21 C14        -0.5847    1.3232   -3.1231 C.ar      1 <0>        -0.1141
     22 C15         0.6755    1.8193   -3.3760 C.ar      1 <0>        -0.0831
     23 C16         1.6578    1.7926   -2.3953 C.ar      1 <0>        -0.1264
     24 C17         1.3936    1.2691   -1.1470 C.ar      1 <0>        -0.0519
     25 C18         0.1271    0.7617   -0.8675 C.ar      1 <0>        -0.1390
     26 C19        -0.2037    0.1875    0.4447 C.2       1 <0>         0.5582
     27 O4          0.6348    0.1485    1.3263 O.2       1 <0>        -0.5215
     28 N4         -1.4453   -0.2861    0.6671 N.am      1 <0>        -0.6382
     29 H1         -1.6676   -0.7019    1.6609 H         1 <0>         0.4366
     30 H2         -0.9306   -9.6458    1.4264 H         1 <0>         0.1251
     31 H3         -2.7671   -9.1529    1.5450 H         1 <0>         0.1062
     32 H4         -0.3525   -7.3621    0.8854 H         1 <0>         0.1204
     33 H5         -1.2556   -4.9997    1.4291 H         1 <0>         0.0647
     34 H6         -1.4653   -5.3606   -0.3180 H         1 <0>         0.0648
     35 H7         -3.8858   -4.8049   -0.1423 H         1 <0>         0.0908
     36 H8         -3.6761   -4.4440    1.6049 H         1 <0>         0.0899
     37 H9         -2.0360   -2.6584    1.0393 H         1 <0>         0.0829
     38 H10        -2.2457   -3.0192   -0.7079 H         1 <0>         0.0891
     39 H11        -4.9173   -2.5582    0.3838 H         1 <0>         0.4604
     40 H12        -5.7257    3.3760    0.0117 H         1 <0>         0.4788
     41 H13        -8.2638    0.0315    0.4099 H         1 <0>         0.4796
     42 H14        -2.9807    0.2546   -2.2853 H         1 <0>         0.1483
     43 H15        -1.3432    1.3481   -3.8915 H         1 <0>         0.1350
     44 H16         0.9016    2.2337   -4.3474 H         1 <0>         0.1329
     45 H17         2.6397    2.1865   -2.6122 H         1 <0>         0.1338
     46 H18         2.1642    1.2531   -0.3905 H         1 <0>         0.1394
@<TRIPOS>BOND
     1    1    2 2
     2    1   30 1
     3    1   31 1
     4    2    3 1
     5    2   32 1
     6    3    4 1
     7    4    5 1
     8    4   33 1
     9    4   34 1
    10    5    6 1
    11    5   35 1
    12    5   36 1
    13    6    7 1
    14    6   37 1
    15    6   38 1
    16    7    8 1
    17    7   39 1
    18    8    9 2
    19    8   18 1
    20    9   16 1
    21    9   10 1
    22   10   11 2
    23   10   12 am
    24   12   13 1
    25   12   40 1
    26   13   14 2
    27   13   15 1
    28   15   16 am
    29   15   41 1
    30   16   17 2
    31   18   28 1
    32   18   19 2
    33   19   20 1
    34   19   42 1
    35   20   25 ar
    36   20   21 ar
    37   21   22 ar
    38   21   43 1
    39   22   23 ar
    40   22   44 1
    41   23   24 ar
    42   23   45 1
    43   24   25 ar
    44   24   46 1
    45   25   26 1
    46   26   27 2
    47   26   28 am
    48   28   29 1
@<TRIPOS>MOLECULE
ZINC41851924
   55    56     0     0     0
SMALL
USER_CHARGES

@<TRIPOS>ATOM
      1 C1          0.4146   -0.7802   -3.5587 C.3       1 <0>        -0.1642
      2 C2         -0.1943   -0.3968   -2.2085 C.3       1 <0>        -0.0617
      3 C3         -0.3506    1.1233   -2.1327 C.3       1 <0>        -0.1460
      4 C4         -1.5658   -1.0586   -2.0611 C.3       1 <0>        -0.1413
      5 C5          0.7249   -0.8717   -1.0813 C.3       1 <0>        -0.1185
      6 C6          2.0509   -0.1115   -1.1499 C.3       1 <0>         0.1851
      7 H1          1.8539    0.9599   -1.1878 H         1 <0>         0.1062
      8 C7          2.8050   -0.5276   -2.3865 C.ar      1 <0>        -0.0994
      9 C8          3.1954   -1.8440   -2.5471 C.ar      1 <0>        -0.0811
     10 C9          3.8867   -2.2269   -3.6809 C.ar      1 <0>        -0.1483
     11 C10         4.1883   -1.2914   -4.6561 C.ar      1 <0>         0.1064
     12 C11         3.7968    0.0267   -4.4941 C.ar      1 <0>        -0.1523
     13 C12         3.1010    0.4062   -3.3620 C.ar      1 <0>        -0.0719
     14 F1          4.8644   -1.6645   -5.7647 F         1 <0>        -0.1368
     15 N1          2.8521   -0.4190    0.0374 N.am      1 <0>        -0.6935
     16 C13         2.6046    0.2157    1.2003 C.2       1 <0>         0.5134
     17 O1          1.6614    0.9742    1.2888 O.2       1 <0>        -0.5097
     18 C14         3.4910   -0.0145    2.3801 C.2       1 <0>         0.5063
     19 O2          4.4343   -0.7731    2.2916 O.2       1 <0>        -0.4946
     20 N2          3.2434    0.6201    3.5430 N.am      1 <0>        -0.6433
     21 C15         4.1271    0.4816    4.6164 C.ar      1 <0>         0.1393
     22 C16         3.6438    0.4682    5.9189 C.ar      1 <0>        -0.1347
     23 C17         4.5201    0.3311    6.9774 C.ar      1 <0>        -0.0846
     24 C18         5.8772    0.2073    6.7421 C.ar      1 <0>        -0.0796
     25 C19         6.3617    0.2207    5.4469 C.ar      1 <0>        -0.0847
     26 C20         5.4905    0.3512    4.3834 C.ar      1 <0>        -0.1148
     27 C21         6.8303    0.0579    7.8998 C.3       1 <0>        -0.1026
     28 C22         7.0076   -1.4042    8.2191 C.2       1 <0>         0.5148
     29 O3          6.4181   -2.2424    7.5704 O.2       1 <0>        -0.5308
     30 N3          7.8213   -1.7803    9.2255 N.am      1 <0>        -0.8589
     31 H2          1.2991   -0.1710   -3.7446 H         1 <0>         0.0750
     32 H3          0.6952   -1.8334   -3.5449 H         1 <0>         0.0541
     33 H4         -0.3168   -0.6094   -4.3487 H         1 <0>         0.0511
     34 H5         -1.0848    1.4502   -2.8691 H         1 <0>         0.0565
     35 H6         -0.6869    1.4047   -1.1348 H         1 <0>         0.0601
     36 H7          0.6083    1.5980   -2.3403 H         1 <0>         0.0539
     37 H8         -1.4544   -2.1415   -2.1151 H         1 <0>         0.0541
     38 H9         -1.9996   -0.7854   -1.0992 H         1 <0>         0.0553
     39 H10        -2.2206   -0.7202   -2.8641 H         1 <0>         0.0569
     40 H11         0.2475   -0.6836   -0.1196 H         1 <0>         0.0773
     41 H12         0.9124   -1.9399   -1.1910 H         1 <0>         0.0699
     42 H13         2.9604   -2.5735   -1.7862 H         1 <0>         0.1341
     43 H14         4.1918   -3.2553   -3.8060 H         1 <0>         0.1388
     44 H15         4.0318    0.7573   -5.2540 H         1 <0>         0.1395
     45 H16         2.7917    1.4334   -3.2375 H         1 <0>         0.1363
     46 H17         3.5608   -1.0793   -0.0135 H         1 <0>         0.4137
     47 H18         2.4518    1.1731    3.6348 H         1 <0>         0.4232
     48 H19         2.5841    0.5652    6.1033 H         1 <0>         0.1296
     49 H20         4.1451    0.3210    7.9902 H         1 <0>         0.1271
     50 H21         7.4223    0.1245    5.2668 H         1 <0>         0.1259
     51 H22         5.8691    0.3568    3.3720 H         1 <0>         0.1343
     52 H23         7.7946    0.4915    7.6348 H         1 <0>         0.1054
     53 H24         6.4271    0.5738    8.7713 H         1 <0>         0.1055
     54 H25         8.2928   -1.1100    9.7443 H         1 <0>         0.4017
     55 H26         7.9355   -2.7214    9.4310 H         1 <0>         0.4025
@<TRIPOS>BOND
     1    1    2 1
     2    1   31 1
     3    1   32 1
     4    1   33 1
     5    2    3 1
     6    2    4 1
     7    2    5 1
     8    3   34 1
     9    3   35 1
    10    3   36 1
    11    4   37 1
    12    4   38 1
    13    4   39 1
    14    5    6 1
    15    5   40 1
    16    5   41 1
    17    6    7 1
    18    6    8 1
    19    6   15 1
    20    8   13 ar
    21    8    9 ar
    22    9   10 ar
    23    9   42 1
    24   10   11 ar
    25   10   43 1
    26   11   12 ar
    27   11   14 1
    28   12   13 ar
    29   12   44 1
    30   13   45 1
    31   15   16 am
    32   15   46 1
    33   16   17 2
    34   16   18 1
    35   18   19 2
    36   18   20 am
    37   20   21 1
    38   20   47 1
    39   21   26 ar
    40   21   22 ar
    41   22   23 ar
    42   22   48 1
    43   23   24 ar
    44   23   49 1
    45   24   25 ar
    46   24   27 1
    47   25   26 ar
    48   25   50 1
    49   26   51 1
    50   27   28 1
    51   27   52 1
    52   27   53 1
    53   28   29 2
    54   28   30 am
    55   30   54 1
    56   30   55 1
@<TRIPOS>MOLECULE
ZINC51667783
   33    34     0     0     0
SMALL
USER_CHARGES

@<TRIPOS>ATOM
      1 C1         -0.0229    1.4148   -0.1222 C.ar      1 <0>        -0.1062
      2 C2          1.1677    2.1121   -0.1014 C.ar      1 <0>        -0.0697
      3 C3          2.3771    1.4198   -0.0439 C.ar      1 <0>        -0.0893
      4 C4          2.3749    0.0255   -0.0080 C.ar      1 <0>        -0.0958
      5 C5          1.1778   -0.6605   -0.0294 C.ar      1 <0>        -0.1031
      6 C6         -0.0185    0.0319   -0.0863 C.ar      1 <0>        -0.0855
      7 C7         -1.3223   -0.7234   -0.1089 C.3       1 <0>         0.1519
      8 N1         -1.7003   -1.0039   -1.4962 N.pl3     1 <0>        -1.1094
      9 S1         -2.8730   -2.1261   -1.8242 S.o2      1 <0>         2.7181
     10 O1         -3.0285   -2.1503   -3.2365 O.2       1 <0>        -0.9309
     11 O2         -2.5450   -3.2875   -1.0739 O.2       1 <0>        -0.9281
     12 C8         -4.3846   -1.5090   -1.1617 C.2       1 <0>        -0.7397
     13 C9         -5.6171   -2.0738   -1.1768 C.2       1 <0>         0.0180
     14 C10        -6.6706   -1.3994   -0.5875 C.2       1 <0>        -0.1708
     15 C11        -6.4398   -0.1938   -0.0124 C.2       1 <0>        -0.1201
     16 S2         -4.6890    0.0187   -0.2895 S.3       1 <0>         0.1882
     17 Br1        -5.8913   -3.7580   -1.9918 Br        1 <0>        -0.0085
     18 C12         3.6580    2.1618   -0.0218 C.2       1 <0>         0.4145
     19 N2          3.7019    3.3692    0.4600 N.2       1 <0>        -0.4211
     20 O3          2.5599    3.9227    1.0880 O.3       1 <0>        -0.4040
     21 N3          4.8093    1.5705   -0.5139 N.pl3     1 <0>        -0.8311
     22 H1         -0.9601    1.9499   -0.1622 H         1 <0>         0.1314
     23 H2          1.1630    3.1917   -0.1298 H         1 <0>         0.1455
     24 H3          3.3082   -0.5161    0.0361 H         1 <0>         0.1294
     25 H4          1.1748   -1.7401   -0.0016 H         1 <0>         0.1336
     26 H5         -1.2079   -1.6621    0.4334 H         1 <0>         0.0976
     27 H6         -2.0986   -0.1225    0.3648 H         1 <0>         0.0758
     28 H7         -1.2636   -0.5322   -2.2227 H         1 <0>         0.4261
     29 H8         -7.6625   -1.8266   -0.5858 H         1 <0>         0.1577
     30 H9         -7.1341    0.4652    0.4876 H         1 <0>         0.2070
     31 H10         2.6884    4.8240    1.4141 H         1 <0>         0.3970
     32 H11         4.7766    0.6701   -0.8732 H         1 <0>         0.4125
     33 H12         5.6485    2.0567   -0.4994 H         1 <0>         0.4090
@<TRIPOS>BOND
     1    1    6 ar
     2    1    2 ar
     3    1   22 1
     4    2    3 ar
     5    2   23 1
     6    3    4 ar
     7    3   18 1
     8    4    5 ar
     9    4   24 1
    10    5    6 ar
    11    5   25 1
    12    6    7 1
    13    7    8 1
    14    7   26 1
    15    7   27 1
    16    8    9 1
    17    8   28 1
    18    9   10 2
    19    9   11 2
    20    9   12 1
    21   12   16 1
    22   12   13 2
    23   13   14 1
    24   13   17 1
    25   14   15 2
    26   14   29 1
    27   15   16 1
    28   15   30 1
    29   18   19 2
    30   18   21 1
    31   19   20 1
    32   20   31 1
    33   21   32 1
    34   21   33 1
@<TRIPOS>MOLECULE
ZINC64684373
   49    52     0     0     0
SMALL
USER_CHARGES

@<TRIPOS>ATOM
      1 C1         -0.0163    1.3482    0.0095 C.ar      1 <0>        -0.1707
      2 C2          1.1658    2.1014    0.0022 C.ar      1 <0>         0.0560
      3 C3          2.3912    1.5352   -0.0125 C.ar      1 <0>        -0.2171
      4 C4          2.5288    0.1198   -0.0218 C.ar      1 <0>         0.3252
      5 N1          3.5868   -0.6543   -0.0369 N.pl3     1 <0>        -0.5986
      6 C5          3.1432   -2.0528   -0.0408 C.3       1 <0>         0.0593
      7 C6          1.6315   -2.0084   -0.0255 C.2       1 <0>         0.0964
      8 C7          1.2951   -0.6984   -0.0144 C.ar      1 <0>        -0.1903
      9 C8          0.0021   -0.0041    0.0020 C.ar      1 <0>         0.0125
     10 C9          0.6905   -3.1856   -0.0239 C.3       1 <0>        -0.0884
     11 C10         0.4565   -3.6534   -1.4617 C.3       1 <0>         0.0847
     12 H1          0.1038   -2.8158   -2.0635 H         1 <0>         0.0971
     13 C11        -0.5776   -4.7495   -1.4713 C.2       1 <0>         0.4921
     14 O1         -1.7423   -4.4910   -1.2198 O.co2     1 <0>        -0.6749
     15 O2         -0.2497   -5.8948   -1.7306 O.co2     1 <0>        -0.6628
     16 N2          1.7119   -4.1615   -2.0204 N.am      1 <0>        -0.7074
     17 C12         1.9068   -4.1568   -3.3540 C.2       1 <0>         0.5345
     18 O3          1.0429   -3.7318   -4.0915 O.2       1 <0>        -0.5030
     19 C13         3.1981   -4.6795   -3.9286 C.3       1 <0>        -0.1370
     20 S1          3.1557   -4.5398   -5.7367 S.3       1 <0>        -0.1240
     21 C14         4.7597   -5.2014   -6.2658 C.3       1 <0>         0.3108
     22 H2          4.8389   -5.1766   -7.3526 H         1 <0>         0.1475
     23 N3          4.9353   -6.5920   -5.7664 N.3       1 <0>        -0.4608
     24 N4          6.3988   -6.7232   -5.6327 N.3       1 <0>        -0.4707
     25 C15         6.8115   -5.4119   -5.0938 C.3       1 <0>         0.2976
     26 H3          6.7772   -5.4098   -4.0044 H         1 <0>         0.0743
     27 N5          5.8492   -4.4374   -5.6595 N.pl3     1 <0>        -0.6374
     28 C16         6.0723   -3.0709   -5.6319 C.2       1 <0>         0.1768
     29 C17         7.3696   -2.6986   -5.7408 C.2       1 <0>        -0.1373
     30 C18         8.4038   -3.7289   -5.9033 C.2       1 <0>        -0.0654
     31 C19         8.1809   -5.0206   -5.5907 C.2       1 <0>        -0.0877
     32 Cl1         9.4269   -6.2155   -5.7741 Cl        1 <0>        -0.0422
     33 Cl2         7.8065   -1.0193   -5.6894 Cl        1 <0>        -0.0540
     34 H4         -0.9665    1.8612    0.0259 H         1 <0>         0.1551
     35 H5          1.0933    3.1789    0.0083 H         1 <0>         0.1559
     36 H6          3.2717    2.1606   -0.0175 H         1 <0>         0.1551
     37 H7          3.4952   -2.5561   -0.9413 H         1 <0>         0.1620
     38 H8          3.5129   -2.5667    0.8465 H         1 <0>         0.1715
     39 H9         -0.9210   -0.5647    0.0081 H         1 <0>         0.1650
     40 H10         1.1268   -3.9987    0.5563 H         1 <0>         0.1138
     41 H11        -0.2596   -2.8905    0.4214 H         1 <0>         0.1315
     42 H12         2.4028   -4.5014   -1.4305 H         1 <0>         0.3903
     43 H13         4.0320   -4.0958   -3.5386 H         1 <0>         0.1027
     44 H14         3.3238   -5.7252   -3.6478 H         1 <0>         0.1114
     45 H15         4.4782   -6.7168   -4.8756 H         1 <0>         0.3243
     46 H16         6.6384   -7.4677   -4.9953 H         1 <0>         0.3663
     47 H17         5.2703   -2.3546   -5.5312 H         1 <0>         0.1711
     48 H18         9.3769   -3.4421   -6.2738 H         1 <0>         0.1383
     49 H19         4.5087   -0.3528   -0.0446 H         1 <0>         0.4507
@<TRIPOS>BOND
     1    1    9 ar
     2    1    2 ar
     3    1   34 1
     4    2    3 ar
     5    2   35 1
     6    3    4 ar
     7    3   36 1
     8    4    8 ar
     9    4    5 2
    10    5    6 1
    11    5   49 1
    12    6    7 1
    13    6   37 1
    14    6   38 1
    15    7    8 2
    16    7   10 1
    17    8    9 ar
    18    9   39 1
    19   10   11 1
    20   10   40 1
    21   10   41 1
    22   11   12 1
    23   11   13 1
    24   11   16 1
    25   13   14 2
    26   13   15 1
    27   16   17 am
    28   16   42 1
    29   17   18 2
    30   17   19 1
    31   19   20 1
    32   19   43 1
    33   19   44 1
    34   20   21 1
    35   21   22 1
    36   21   27 1
    37   21   23 1
    38   23   24 1
    39   23   45 1
    40   24   25 1
    41   24   46 1
    42   25   26 1
    43   25   31 1
    44   25   27 1
    45   27   28 1
    46   28   29 2
    47   28   47 1
    48   29   30 1
    49   29   33 1
    50   30   31 2
    51   30   48 1
    52   31   32 1
@<TRIPOS>MOLECULE
ZINC05460407
   48    50     0     0     0
SMALL
USER_CHARGES
ethyl 3,6-dicarbamoyl-2-(4-chlorophenyl)-1-cyano-3,8a-dihydro-2H-indolizine-1-carboxylate
@<TRIPOS>ATOM
      1 C1         -8.6273    0.5697    3.6393 C.3       1 <0>        -0.1554
      2 C2         -7.1107    0.5209    3.8353 C.3       1 <0>         0.0616
      3 O1         -6.4576    0.4404    2.5410 O.3       1 <0>        -0.3435
      4 C3         -5.1163    0.3895    2.5372 C.2       1 <0>         0.4905
      5 O2         -4.5080    0.4116    3.5810 O.2       1 <0>        -0.4706
      6 C4         -4.3691    0.3049    1.2313 C.3       1 <0>         0.0477
      7 C5         -4.6457    1.5427    0.3602 C.3       1 <0>         0.1989
      8 H1         -4.8801    2.4043    0.9854 H         1 <0>         0.1095
      9 C6         -5.7538    1.2944   -0.6318 C.2       1 <0>        -0.2129
     10 C7         -5.6828    1.8677   -1.8313 C.2       1 <0>        -0.0499
     11 C8         -4.5469    2.7392   -2.1973 C.2       1 <0>        -0.2819
     12 C9         -3.3871    2.6504   -1.4781 C.2       1 <0>         0.2649
     13 N1         -3.4137    1.7871   -0.4171 N.pl3     1 <0>        -0.5973
     14 C10        -2.3412    0.9289    0.0873 C.3       1 <0>         0.1235
     15 H2         -2.1709    0.0978   -0.5971 H         1 <0>         0.1079
     16 C11        -2.8344    0.4023    1.4587 C.3       1 <0>        -0.0178
     17 H3         -2.6025    1.1105    2.2542 H         1 <0>         0.1381
     18 C12        -2.2471   -0.9528    1.7583 C.ar      1 <0>        -0.1002
     19 C13        -2.1700   -1.9080    0.7620 C.ar      1 <0>        -0.1045
     20 C14        -1.6262   -3.1491    1.0348 C.ar      1 <0>        -0.1028
     21 C15        -1.1694   -3.4392    2.3081 C.ar      1 <0>        -0.0229
     22 C16        -1.2520   -2.4847    3.3062 C.ar      1 <0>        -0.1070
     23 C17        -1.7908   -1.2420    3.0308 C.ar      1 <0>        -0.0695
     24 Cl1        -0.4934   -5.0004    2.6534 Cl        1 <0>        -0.0598
     25 C18        -1.0746    1.7267    0.2612 C.2       1 <0>         0.5134
     26 O3         -1.1238    2.9370    0.3213 O.2       1 <0>        -0.5152
     27 N2          0.1128    1.0953    0.3500 N.am      1 <0>        -0.8434
     28 C19        -4.6585    3.6722   -3.3233 C.2       1 <0>         0.5826
     29 O4         -3.7178    4.3862   -3.6176 O.2       1 <0>        -0.5570
     30 N3         -5.8029    3.7390   -4.0323 N.am      1 <0>        -0.8547
     31 C20        -4.7152   -0.9313    0.5109 C.1       1 <0>         0.2137
     32 N4         -4.9822   -1.8853   -0.0450 N.1       1 <0>        -0.3659
     33 H4         -8.8888    1.4454    3.0452 H         1 <0>         0.0708
     34 H5         -8.9559   -0.3316    3.1220 H         1 <0>         0.0682
     35 H6         -9.1175    0.6302    4.6109 H         1 <0>         0.0852
     36 H7         -6.8491   -0.3547    4.4294 H         1 <0>         0.0755
     37 H8         -6.7820    1.4223    4.3526 H         1 <0>         0.0787
     38 H9         -6.5905    0.6621   -0.3739 H         1 <0>         0.1355
     39 H10        -6.4696    1.6923   -2.5501 H         1 <0>         0.1235
     40 H11        -2.5177    3.2429   -1.7220 H         1 <0>         0.1736
     41 H12        -2.5306   -1.6830   -0.2308 H         1 <0>         0.1299
     42 H13        -1.5620   -3.8938    0.2552 H         1 <0>         0.1389
     43 H14        -0.8953   -2.7104    4.3003 H         1 <0>         0.1407
     44 H15        -1.8556   -0.4970    3.8099 H         1 <0>         0.1434
     45 H16         0.1521    0.1272    0.3019 H         1 <0>         0.4038
     46 H17         0.9284    1.6090    0.4579 H         1 <0>         0.4103
     47 H18        -6.5526    3.1700   -3.7977 H         1 <0>         0.3989
     48 H19        -5.8767    4.3561   -4.7770 H         1 <0>         0.4030
@<TRIPOS>BOND
     1    1    2 1
     2    1   33 1
     3    1   34 1
     4    1   35 1
     5    2    3 1
     6    2   36 1
     7    2   37 1
     8    3    4 1
     9    4    5 2
    10    4    6 1
    11    6   16 1
    12    6    7 1
    13    6   31 1
    14    7    8 1
    15    7   13 1
    16    7    9 1
    17    9   10 2
    18    9   38 1
    19   10   11 1
    20   10   39 1
    21   11   12 2
    22   11   28 1
    23   12   13 1
    24   12   40 1
    25   13   14 1
    26   14   15 1
    27   14   16 1
    28   14   25 1
    29   16   17 1
    30   16   18 1
    31   18   23 ar
    32   18   19 ar
    33   19   20 ar
    34   19   41 1
    35   20   21 ar
    36   20   42 1
    37   21   22 ar
    38   21   24 1
    39   22   23 ar
    40   22   43 1
    41   23   44 1
    42   25   26 2
    43   25   27 am
    44   27   45 1
    45   27   46 1
    46   28   29 2
    47   28   30 am
    48   30   47 1
    49   30   48 1
    50   31   32 3
@<TRIPOS>MOLECULE
ZINC09905227
   51    54     0     0     0
SMALL
USER_CHARGES
N-(5-carbamoyl-2-pyrrolidin-1-yl-phenyl)-5-oxo-2-thia-6-azabicyclo[5.4.0]undeca-8,10,12-triene-9-carboxamide
@<TRIPOS>ATOM
      1 C1         -1.2146    1.9702    0.0495 C.ar      1 <0>        -0.0756
      2 C2         -0.0706    1.2030    0.0281 C.ar      1 <0>        -0.1580
      3 C3          1.1783    1.8124    0.0076 C.ar      1 <0>         0.1002
      4 C4          1.2779    3.2069    0.0144 C.ar      1 <0>         0.1272
      5 C5          0.1330    3.9800    0.0415 C.ar      1 <0>        -0.0538
      6 C6         -1.1221    3.3644    0.0621 C.ar      1 <0>        -0.1420
      7 C7         -2.3472    4.1857    0.0912 C.2       1 <0>         0.5641
      8 O1         -2.2659    5.3990    0.0972 O.2       1 <0>        -0.5331
      9 N1         -3.5567    3.5914    0.1110 N.am      1 <0>        -0.8521
     10 N2          2.5376    3.8199   -0.0059 N.am      1 <0>        -0.6552
     11 C8          2.6735    5.0642   -0.5058 C.2       1 <0>         0.5544
     12 O2          1.6928    5.6821   -0.8739 O.2       1 <0>        -0.5003
     13 C9          4.0113    5.6763   -0.6063 C.ar      1 <0>        -0.0933
     14 C10         5.1380    4.9679   -0.1776 C.ar      1 <0>        -0.0973
     15 C11         6.3897    5.5355   -0.2749 C.ar      1 <0>        -0.0535
     16 C12         6.5293    6.8183   -0.7896 C.ar      1 <0>        -0.1075
     17 C13         5.4079    7.5336   -1.2155 C.ar      1 <0>         0.1684
     18 C14         4.1522    6.9679   -1.1252 C.ar      1 <0>        -0.0711
     19 N3          5.5721    8.8269   -1.7362 N.am      1 <0>        -0.6689
     20 C15         6.4684    9.0576   -2.7033 C.2       1 <0>         0.5325
     21 O3          6.7361   10.2013   -3.0059 O.2       1 <0>        -0.5155
     22 C16         7.1475    7.9286   -3.4204 C.3       1 <0>        -0.1516
     23 C17         8.4552    7.5468   -2.7059 C.3       1 <0>        -0.0895
     24 S1          8.1227    7.5654   -0.9125 S.3       1 <0>        -0.1304
     25 N4          2.3319    1.0331   -0.0193 N.pl3     1 <0>        -0.4754
     26 C18         1.9983   -0.4135    0.0282 C.3       1 <0>         0.0287
     27 C19         3.2756   -1.0904   -0.5293 C.3       1 <0>        -0.1247
     28 C20         3.7259   -0.1158   -1.6417 C.3       1 <0>        -0.1319
     29 C21         3.0777    1.2337   -1.2807 C.3       1 <0>         0.0379
     30 H1         -2.1837    1.4936    0.0605 H         1 <0>         0.1296
     31 H2         -0.1445    0.1255    0.0228 H         1 <0>         0.1425
     32 H3          0.2075    5.0574    0.0464 H         1 <0>         0.1714
     33 H4         -3.6216    2.6235    0.1062 H         1 <0>         0.3999
     34 H5         -4.3622    4.1314    0.1301 H         1 <0>         0.4062
     35 H6          3.3118    3.3489    0.3399 H         1 <0>         0.4166
     36 H7          5.0273    3.9726    0.2267 H         1 <0>         0.1372
     37 H8          7.2600    4.9861    0.0525 H         1 <0>         0.1502
     38 H9          3.2833    7.5193   -1.4529 H         1 <0>         0.1526
     39 H10         5.0333    9.5571   -1.3934 H         1 <0>         0.4179
     40 H11         7.3712    8.2337   -4.4426 H         1 <0>         0.1188
     41 H12         6.4835    7.0645   -3.4426 H         1 <0>         0.0903
     42 H13         9.2336    8.2711   -2.9458 H         1 <0>         0.1226
     43 H14         8.7683    6.5494   -3.0143 H         1 <0>         0.1072
     44 H15         1.8107   -0.7316    1.0537 H         1 <0>         0.0930
     45 H16         1.1392   -0.6312   -0.6065 H         1 <0>         0.0654
     46 H17         3.0422   -2.0702   -0.9462 H         1 <0>         0.0789
     47 H18         4.0385   -1.1712    0.2449 H         1 <0>         0.0791
     48 H19         3.3692   -0.4591   -2.6127 H         1 <0>         0.0728
     49 H20         4.8120   -0.0243   -1.6475 H         1 <0>         0.0783
     50 H21         2.3936    1.5404   -2.0718 H         1 <0>         0.0561
     51 H22         3.8472    1.9928   -1.1404 H         1 <0>         0.0806
@<TRIPOS>BOND
     1    1    6 ar
     2    1    2 ar
     3    1   30 1
     4    2    3 ar
     5    2   31 1
     6    3    4 ar
     7    3   25 1
     8    4    5 ar
     9    4   10 1
    10    5    6 ar
    11    5   32 1
    12    6    7 1
    13    7    8 2
    14    7    9 am
    15    9   33 1
    16    9   34 1
    17   10   11 am
    18   10   35 1
    19   11   12 2
    20   11   13 1
    21   13   18 ar
    22   13   14 ar
    23   14   15 ar
    24   14   36 1
    25   15   16 ar
    26   15   37 1
    27   16   24 1
    28   16   17 ar
    29   17   18 ar
    30   17   19 1
    31   18   38 1
    32   19   20 am
    33   19   39 1
    34   20   21 2
    35   20   22 1
    36   22   23 1
    37   22   40 1
    38   22   41 1
    39   23   24 1
    40   23   42 1
    41   23   43 1
    42   25   29 1
    43   25   26 1
    44   26   27 1
    45   26   44 1
    46   26   45 1
    47   27   28 1
    48   27   46 1
    49   27   47 1
    50   28   29 1
    51   28   48 1
    52   28   49 1
    53   29   50 1
    54   29   51 1
@<TRIPOS>MOLECULE
ZINC19597327
   54    56     0     0     0
SMALL
USER_CHARGES
isopropyl (1S,2R,3R,8aR)-3,6-dicarbamoyl-1-cyano-2-[2-(trifluoromethyl)phenyl]-3,8a-dihydro-2H-indolizine-1-carboxylate
@<TRIPOS>ATOM
      1 C1         -0.5941    3.4445   -5.8935 C.3       1 <0>        -0.1540
      2 C2          0.0271    2.8698   -4.6188 C.3       1 <0>         0.0821
      3 C3          1.5137    3.2285   -4.5694 C.3       1 <0>        -0.1716
      4 O1         -0.6443    3.4282   -3.4588 O.3       1 <0>        -0.3435
      5 C4         -0.7043    2.6590   -2.3604 C.2       1 <0>         0.4844
      6 O2         -0.2121    1.5556   -2.3680 O.2       1 <0>        -0.4570
      7 C5         -1.3856    3.1716   -1.1178 C.3       1 <0>         0.0598
      8 C6         -0.5996    4.3443   -0.5058 C.3       1 <0>         0.1961
      9 H1          0.4649    4.2967   -0.7789 H         1 <0>         0.1111
     10 C7         -1.1622    5.6686   -0.9569 C.2       1 <0>        -0.2079
     11 C8         -1.1595    6.6915   -0.1048 C.2       1 <0>        -0.0523
     12 C9         -0.6128    6.5490    1.2607 C.2       1 <0>        -0.2577
     13 C10        -0.4587    5.2887    1.7918 C.2       1 <0>         0.2348
     14 N1         -0.8017    4.2620    0.9552 N.pl3     1 <0>        -0.5905
     15 C11        -1.4622    2.9977    1.2857 C.3       1 <0>         0.1338
     16 H2         -0.9971    2.5622    2.1823 H         1 <0>         0.1265
     17 C12        -1.3319    2.1136    0.0199 C.3       1 <0>        -0.0400
     18 H3         -2.0824    1.3132   -0.0583 H         1 <0>         0.1244
     19 C13        -0.0167    1.3779    0.0096 C.ar      1 <0>        -0.0197
     20 C14         1.1642    2.0702    0.2039 C.ar      1 <0>        -0.1258
     21 C15         2.3710    1.3966    0.1874 C.ar      1 <0>        -0.0789
     22 C16         2.3970    0.0301   -0.0210 C.ar      1 <0>        -0.1131
     23 C17         1.2165   -0.6621   -0.2147 C.ar      1 <0>        -0.0647
     24 C18         0.0095    0.0120   -0.1996 C.ar      1 <0>        -0.1479
     25 C19        -1.2777   -0.7427   -0.4108 C.3       1 <0>         0.5038
     26 F1         -0.9968   -2.1001   -0.6000 F         1 <0>        -0.1725
     27 F2         -2.0983   -0.5884    0.7117 F         1 <0>        -0.1805
     28 F3         -1.9330   -0.2403   -1.5402 F         1 <0>        -0.1691
     29 C20        -2.9152    3.2375    1.6055 C.2       1 <0>         0.4904
     30 O3         -3.4416    4.2827    1.2872 O.2       1 <0>        -0.5123
     31 N2         -3.6296    2.2906    2.2453 N.am      1 <0>        -0.8720
     32 C21        -0.2401    7.7345    2.0396 C.2       1 <0>         0.5820
     33 O4          0.2090    7.6077    3.1638 O.2       1 <0>        -0.5691
     34 N3         -0.3949    8.9645    1.5107 N.am      1 <0>        -0.8760
     35 C22        -2.7756    3.5604   -1.4072 C.1       1 <0>         0.2058
     36 N4         -3.8482    3.8605   -1.6305 N.1       1 <0>        -0.3551
     37 H4         -1.6629    3.1866   -5.9290 H         1 <0>         0.0659
     38 H5         -0.0854    3.0214   -6.7723 H         1 <0>         0.0840
     39 H6         -0.4806    4.5386   -5.8956 H         1 <0>         0.0718
     40 H7         -0.1146    1.7800   -4.5711 H         1 <0>         0.0902
     41 H8          1.9603    2.8153   -3.6530 H         1 <0>         0.0638
     42 H9          1.6271    4.3226   -4.5715 H         1 <0>         0.0706
     43 H10         2.0224    2.8054   -5.4482 H         1 <0>         0.0796
     44 H11        -1.5702    5.7980   -1.9702 H         1 <0>         0.1329
     45 H12        -1.5692    7.6648   -0.4126 H         1 <0>         0.1217
     46 H13        -0.0837    5.1667    2.8187 H         1 <0>         0.1783
     47 H14         1.1438    3.1376    0.3674 H         1 <0>         0.1385
     48 H15         3.2934    1.9374    0.3391 H         1 <0>         0.1341
     49 H16         3.3399   -0.4966   -0.0321 H         1 <0>         0.1359
     50 H17         1.2369   -1.7296   -0.3775 H         1 <0>         0.1397
     51 H18        -4.6902    2.4657    2.4787 H         1 <0>         0.4290
     52 H19        -3.1521    1.3427    2.5341 H         1 <0>         0.4215
     53 H20        -0.1153    9.8536    2.0950 H         1 <0>         0.4220
     54 H21        -0.8008    9.0793    0.4948 H         1 <0>         0.4163
@<TRIPOS>BOND
     1    1    2 1
     2    1   37 1
     3    1   38 1
     4    1   39 1
     5    2    3 1
     6    2    4 1
     7    2   40 1
     8    3   41 1
     9    3   42 1
    10    3   43 1
    11    4    5 1
    12    5    6 2
    13    5    7 1
    14    7   17 1
    15    7    8 1
    16    7   35 1
    17    8    9 1
    18    8   14 1
    19    8   10 1
    20   10   11 2
    21   10   44 1
    22   11   12 1
    23   11   45 1
    24   12   13 2
    25   12   32 1
    26   13   14 1
    27   13   46 1
    28   14   15 1
    29   15   16 1
    30   15   17 1
    31   15   29 1
    32   17   18 1
    33   17   19 1
    34   19   24 ar
    35   19   20 ar
    36   20   21 ar
    37   20   47 1
    38   21   22 ar
    39   21   48 1
    40   22   23 ar
    41   22   49 1
    42   23   24 ar
    43   23   50 1
    44   24   25 1
    45   25   26 1
    46   25   27 1
    47   25   28 1
    48   29   30 2
    49   29   31 am
    50   31   51 1
    51   31   52 1
    52   32   33 2
    53   32   34 am
    54   34   53 1
    55   34   54 1
    56   35   36 3
@<TRIPOS>MOLECULE
ZINC35878029
   49    52     0     0     0
SMALL
USER_CHARGES

@<TRIPOS>ATOM
      1 C1         -0.0168    1.3895    0.0097 C.ar      1 <0>        -0.0953
      2 C2          1.1701    2.0934    0.0021 C.ar      1 <0>        -0.1094
      3 C3          2.3782    1.4175   -0.0135 C.ar      1 <0>        -0.0303
      4 C4          2.4024    0.0334   -0.0212 C.ar      1 <0>        -0.1084
      5 C5          1.2210   -0.6797   -0.0137 C.ar      1 <0>        -0.0760
      6 C6          0.0021   -0.0041    0.0020 C.ar      1 <0>        -0.0225
      7 C7         -1.2707   -0.7655    0.0106 C.2       1 <0>        -0.2464
      8 C8         -2.1307   -0.7000   -1.0397 C.2       1 <0>         0.1350
      9 O1         -3.2779   -1.3806   -1.0770 O.3       1 <0>        -0.2139
     10 C9         -3.8116   -1.9325    0.0298 C.ar      1 <0>         0.1771
     11 C10        -5.1347   -2.3551    0.0425 C.ar      1 <0>        -0.1728
     12 C11        -5.6633   -2.9283    1.1863 C.ar      1 <0>         0.1917
     13 C12        -4.8808   -3.0874    2.3283 C.ar      1 <0>        -0.2074
     14 C13        -3.5789   -2.6739    2.3344 C.ar      1 <0>         0.0094
     15 C14        -3.0341   -2.0905    1.1909 C.ar      1 <0>        -0.2488
     16 C15        -1.6352   -1.6199    1.1568 C.2       1 <0>         0.4342
     17 O2         -0.8312   -1.9156    2.0240 O.2       1 <0>        -0.4503
     18 O3         -6.9568   -3.3398    1.1955 O.3       1 <0>        -0.2874
     19 C16        -7.4434   -3.9233    2.4057 C.3       1 <0>         0.2264
     20 H1         -6.7510   -4.6954    2.7411 H         1 <0>         0.0782
     21 C17        -8.8196   -4.5456    2.1552 C.3       1 <0>         0.0623
     22 H2         -9.5018   -3.7823    1.7810 H         1 <0>         0.0943
     23 C18        -9.3606   -5.1156    3.4701 C.3       1 <0>         0.0866
     24 H3         -8.7046   -5.9131    3.8190 H         1 <0>         0.0775
     25 C19        -9.4097   -3.9979    4.5164 C.3       1 <0>         0.0865
     26 H4         -9.7413   -4.4068    5.4708 H         1 <0>         0.0890
     27 C20        -8.0108   -3.3968    4.6757 C.3       1 <0>         0.1091
     28 H5         -7.3258   -4.1620    5.0410 H         1 <0>         0.0881
     29 O4         -7.5543   -2.9135    3.4107 O.3       1 <0>        -0.3671
     30 C21        -8.0634   -2.2398    5.6754 C.3       1 <0>         0.0888
     31 O5         -6.7404   -1.7544    5.9124 O.3       1 <0>        -0.5675
     32 O6        -10.3209   -2.9834    4.0890 O.3       1 <0>        -0.5454
     33 O7        -10.6752   -5.6350    3.2608 O.3       1 <0>        -0.5528
     34 O8         -8.7012   -5.5942    1.1916 O.3       1 <0>        -0.5569
     35 Cl1         3.8679    2.3088   -0.0241 Cl        1 <0>        -0.0673
     36 H6         -0.9588    1.9177    0.0260 H         1 <0>         0.1340
     37 H7          1.1565    3.1733    0.0081 H         1 <0>         0.1372
     38 H8          3.3474   -0.4892   -0.0334 H         1 <0>         0.1371
     39 H9          1.2409   -1.7595   -0.0204 H         1 <0>         0.1333
     40 H10        -1.8751   -0.0704   -1.8792 H         1 <0>         0.2017
     41 H11        -5.7494   -2.2365   -0.8375 H         1 <0>         0.1538
     42 H12        -5.3056   -3.5392    3.2125 H         1 <0>         0.1416
     43 H13        -2.9744   -2.7979    3.2207 H         1 <0>         0.1465
     44 H14        -8.6779   -1.4363    5.2693 H         1 <0>         0.0702
     45 H15        -8.4956   -2.5892    6.6131 H         1 <0>         0.0677
     46 H16        -6.6977   -1.0184    6.5380 H         1 <0>         0.3863
     47 H17       -11.2272   -3.2963    3.9636 H         1 <0>         0.3904
     48 H18       -10.7183   -6.3437    2.6043 H         1 <0>         0.3968
     49 H19        -8.3595   -5.3042    0.3348 H         1 <0>         0.3949
@<TRIPOS>BOND
     1    1    6 ar
     2    1    2 ar
     3    1   36 1
     4    2    3 ar
     5    2   37 1
     6    3    4 ar
     7    3   35 1
     8    4    5 ar
     9    4   38 1
    10    5    6 ar
    11    5   39 1
    12    6    7 1
    13    7   16 1
    14    7    8 2
    15    8    9 1
    16    8   40 1
    17    9   10 1
    18   10   15 ar
    19   10   11 ar
    20   11   12 ar
    21   11   41 1
    22   12   13 ar
    23   12   18 1
    24   13   14 ar
    25   13   42 1
    26   14   15 ar
    27   14   43 1
    28   15   16 1
    29   16   17 2
    30   18   19 1
    31   19   20 1
    32   19   29 1
    33   19   21 1
    34   21   22 1
    35   21   23 1
    36   21   34 1
    37   23   24 1
    38   23   25 1
    39   23   33 1
    40   25   26 1
    41   25   27 1
    42   25   32 1
    43   27   28 1
    44   27   29 1
    45   27   30 1
    46   30   31 1
    47   30   44 1
    48   30   45 1
    49   31   46 1
    50   32   47 1
    51   33   48 1
    52   34   49 1
@<TRIPOS>MOLECULE
ZINC15959799
   59    63     0     0     0
SMALL
USER_CHARGES

@<TRIPOS>ATOM
      1 C1         -0.0184    1.5028    0.0103 C.3       1 <0>        -0.1130
      2 C2          0.0021   -0.0041    0.0020 C.ar      1 <0>        -0.1062
      3 C3          0.0058   -0.6907   -1.1986 C.ar      1 <0>        -0.0715
      4 C4          0.0256   -2.0697   -1.2121 C.ar      1 <0>        -0.1353
      5 C5          0.0417   -2.7823   -0.0154 C.ar      1 <0>         0.1575
      6 C6          0.0371   -2.0808    1.1866 C.ar      1 <0>        -0.1767
      7 C7          0.0229   -0.7039    1.1953 C.ar      1 <0>        -0.0550
      8 C8          0.0575   -3.1217    2.2696 C.3       1 <0>         0.1247
      9 C9          1.2825   -2.9634    3.1787 C.3       1 <0>        -0.1090
     10 H1          2.1089   -2.4533    2.6836 H         1 <0>         0.1432
     11 C10         0.7518   -2.1901    4.4178 C.3       1 <0>        -0.1219
     12 H2          1.3042   -1.2704    4.6104 H         1 <0>         0.1439
     13 C11        -0.7399   -1.9339    4.1170 C.3       1 <0>         0.0802
     14 H3         -0.8740   -0.9445    3.6796 H         1 <0>         0.0843
     15 N1         -1.1186   -3.0086    3.1517 N.3       1 <0>        -0.6221
     16 C12        -1.5711   -2.0670    5.3947 C.3       1 <0>        -0.0958
     17 C13        -3.0238   -1.6880    5.0999 C.3       1 <0>        -0.1424
     18 C14        -3.8424   -1.8191    6.3583 C.2       1 <0>         0.5140
     19 O1         -3.3158   -2.1802    7.3894 O.2       1 <0>        -0.5335
     20 N2         -5.1598   -1.5352    6.3379 N.am      1 <0>        -0.8599
     21 C15         0.8851   -3.1946    5.5396 C.2       1 <0>         0.5409
     22 O2          0.5688   -3.0017    6.6938 O.2       1 <0>        -0.4625
     23 N3          1.4058   -4.3300    5.0599 N.am      1 <0>        -0.5662
     24 C16         1.6801   -4.3122    3.7352 C.2       1 <0>         0.5411
     25 O3          2.1615   -5.2206    3.0929 O.2       1 <0>        -0.4475
     26 C17         1.6660   -5.5000    5.9023 C.3       1 <0>         0.1094
     27 C18         0.4292   -6.4005    5.9205 C.3       1 <0>        -0.0920
     28 C19         0.6969   -7.6041    6.7870 C.ar      1 <0>        -0.0818
     29 C20         1.2426   -8.7470    6.2330 C.ar      1 <0>        -0.1126
     30 C21         1.4881   -9.8510    7.0278 C.ar      1 <0>        -0.1193
     31 C22         1.1884   -9.8120    8.3767 C.ar      1 <0>        -0.1221
     32 C23         0.6436   -8.6688    8.9309 C.ar      1 <0>        -0.1189
     33 C24         0.4020   -7.5632    8.1369 C.ar      1 <0>        -0.1128
     34 C25         0.0756   -4.4399    1.5451 C.2       1 <0>         0.5444
     35 O4          0.0970   -5.5430    2.0489 O.2       1 <0>        -0.4491
     36 N4          0.0630   -4.1574    0.2281 N.am      1 <0>        -0.6632
     37 H4          1.0042    1.8801    0.0026 H         1 <0>         0.0728
     38 H5         -0.5455    1.8639   -0.8728 H         1 <0>         0.0692
     39 H6         -0.5286    1.8543    0.9071 H         1 <0>         0.0677
     40 H7         -0.0071   -0.1443   -2.1301 H         1 <0>         0.1342
     41 H8          0.0281   -2.5988   -2.1537 H         1 <0>         0.1304
     42 H9          0.0236   -0.1701    2.1342 H         1 <0>         0.1287
     43 H10        -1.9396   -2.7450    2.6278 H         1 <0>         0.3548
     44 H11        -1.5291   -3.0967    5.7498 H         1 <0>         0.0860
     45 H12        -1.1702   -1.4022    6.1598 H         1 <0>         0.0922
     46 H13        -3.0657   -0.6583    4.7448 H         1 <0>         0.0936
     47 H14        -3.4246   -2.3528    4.3347 H         1 <0>         0.0949
     48 H15        -5.5809   -1.2464    5.5132 H         1 <0>         0.4005
     49 H16        -5.6867   -1.6196    7.1479 H         1 <0>         0.4016
     50 H17         2.5139   -6.0552    5.5011 H         1 <0>         0.0933
     51 H18         1.8929   -5.1737    6.9173 H         1 <0>         0.0951
     52 H19        -0.4186   -5.8453    6.3217 H         1 <0>         0.0787
     53 H20         0.2024   -6.7268    4.9055 H         1 <0>         0.0840
     54 H21         1.4768   -8.7775    5.1791 H         1 <0>         0.1225
     55 H22         1.9138  -10.7442    6.5949 H         1 <0>         0.1219
     56 H23         1.3796  -10.6748    8.9976 H         1 <0>         0.1212
     57 H24         0.4091   -8.6384    9.9847 H         1 <0>         0.1223
     58 H25        -0.0202   -6.6688    8.5706 H         1 <0>         0.1233
     59 H26         0.0681   -4.8307   -0.4700 H         1 <0>         0.4180
@<TRIPOS>BOND
     1    1    2 1
     2    1   37 1
     3    1   38 1
     4    1   39 1
     5    2    7 ar
     6    2    3 ar
     7    3    4 ar
     8    3   40 1
     9    4    5 ar
    10    4   41 1
    11    5   36 1
    12    5    6 ar
    13    6    7 ar
    14    6    8 1
    15    7   42 1
    16    8   15 1
    17    8    9 1
    18    8   34 1
    19    9   10 1
    20    9   24 1
    21    9   11 1
    22   11   12 1
    23   11   13 1
    24   11   21 1
    25   13   14 1
    26   13   15 1
    27   13   16 1
    28   15   43 1
    29   16   17 1
    30   16   44 1
    31   16   45 1
    32   17   18 1
    33   17   46 1
    34   17   47 1
    35   18   19 2
    36   18   20 am
    37   20   48 1
    38   20   49 1
    39   21   22 2
    40   21   23 am
    41   23   24 am
    42   23   26 1
    43   24   25 2
    44   26   27 1
    45   26   50 1
    46   26   51 1
    47   27   28 1
    48   27   52 1
    49   27   53 1
    50   28   33 ar
    51   28   29 ar
    52   29   30 ar
    53   29   54 1
    54   30   31 ar
    55   30   55 1
    56   31   32 ar
    57   31   56 1
    58   32   33 ar
    59   32   57 1
    60   33   58 1
    61   34   35 2
    62   34   36 am
    63   36   59 1
@<TRIPOS>MOLECULE
ZINC05315906
   48    50     0     0     0
SMALL
USER_CHARGES
ethyl 3,6-dicarbamoyl-2-(4-chlorophenyl)-1-cyano-3,8a-dihydro-2H-indolizine-1-carboxylate
@<TRIPOS>ATOM
      1 C1         -1.2780    8.3110   -1.3342 C.3       1 <0>        -0.1558
      2 C2         -1.7423    7.4415   -0.1641 C.3       1 <0>         0.0601
      3 O1         -1.9526    6.0810   -0.6258 O.3       1 <0>        -0.3466
      4 C3         -2.3646    5.1852    0.2851 C.2       1 <0>         0.4962
      5 O2         -2.5435    5.5266    1.4302 O.2       1 <0>        -0.4725
      6 C4         -2.6039    3.7537   -0.1205 C.3       1 <0>         0.0452
      7 C5         -1.3051    3.1158   -0.6409 C.3       1 <0>         0.2008
      8 H1         -1.3439    3.0090   -1.7250 H         1 <0>         0.1085
      9 C6         -0.1029    3.9322   -0.2382 C.2       1 <0>        -0.2222
     10 C7          1.0335    3.3061    0.0572 C.2       1 <0>        -0.0465
     11 C8          1.1379    1.8336   -0.0077 C.2       1 <0>        -0.2788
     12 C9         -0.0147    1.0812   -0.0063 C.2       1 <0>         0.2610
     13 N1         -1.1767    1.7987    0.0085 N.pl3     1 <0>        -0.5907
     14 C10        -2.4365    1.4928    0.6960 C.3       1 <0>         0.1221
     15 H2         -2.2567    0.8727    1.5742 H         1 <0>         0.1347
     16 C11        -2.9741    2.8891    1.1138 C.3       1 <0>        -0.0179
     17 H3         -2.4680    3.2505    2.0090 H         1 <0>         0.1447
     18 C12        -4.4666    2.8530    1.3189 C.ar      1 <0>        -0.1204
     19 C13        -5.2955    2.4433    0.2912 C.ar      1 <0>        -0.0988
     20 C14        -6.6641    2.4046    0.4805 C.ar      1 <0>        -0.1142
     21 C15        -7.2052    2.7868    1.6951 C.ar      1 <0>        -0.0165
     22 C16        -6.3755    3.2021    2.7214 C.ar      1 <0>        -0.1186
     23 C17        -5.0067    3.2350    2.5327 C.ar      1 <0>        -0.0659
     24 Cl1        -8.9246    2.7458    1.9311 Cl        1 <0>        -0.0619
     25 C18        -3.3997    0.8131   -0.2428 C.2       1 <0>         0.5030
     26 O3         -3.1913    0.8236   -1.4375 O.2       1 <0>        -0.5152
     27 N2         -4.4926    0.1936    0.2452 N.am      1 <0>        -0.8437
     28 C19         2.4508    1.1831   -0.0724 C.2       1 <0>         0.5829
     29 O4          2.5267   -0.0306   -0.1252 O.2       1 <0>        -0.5591
     30 N3          3.5732    1.9291   -0.0732 N.am      1 <0>        -0.8543
     31 C20        -3.6620    3.6773   -1.1410 C.1       1 <0>         0.2097
     32 N4         -4.4787    3.6183   -1.9285 N.1       1 <0>        -0.3611
     33 H4         -1.1201    9.3323   -0.9877 H         1 <0>         0.0850
     34 H5         -0.3446    7.9145   -1.7337 H         1 <0>         0.0706
     35 H6         -2.0386    8.3058   -2.1150 H         1 <0>         0.0687
     36 H7         -2.6757    7.8380    0.2353 H         1 <0>         0.0754
     37 H8         -0.9817    7.4467    0.6166 H         1 <0>         0.0781
     38 H9         -0.1634    5.0094   -0.1898 H         1 <0>         0.1361
     39 H10         1.8966    3.8856    0.3498 H         1 <0>         0.1244
     40 H11        -0.0011    0.0013   -0.0204 H         1 <0>         0.1732
     41 H12        -4.8733    2.1492   -0.6584 H         1 <0>         0.1477
     42 H13        -7.3112    2.0803   -0.3210 H         1 <0>         0.1354
     43 H14        -6.7973    3.5002    3.6698 H         1 <0>         0.1396
     44 H15        -4.3590    3.5595    3.3337 H         1 <0>         0.1418
     45 H16        -4.6593    0.1853    1.2008 H         1 <0>         0.4056
     46 H17        -5.1126   -0.2439   -0.3591 H         1 <0>         0.4079
     47 H18         3.5127    2.8963   -0.0311 H         1 <0>         0.3991
     48 H19         4.4415    1.4989   -0.1160 H         1 <0>         0.4033
@<TRIPOS>BOND
     1    1    2 1
     2    1   33 1
     3    1   34 1
     4    1   35 1
     5    2    3 1
     6    2   36 1
     7    2   37 1
     8    3    4 1
     9    4    5 2
    10    4    6 1
    11    6   16 1
    12    6    7 1
    13    6   31 1
    14    7    8 1
    15    7   13 1
    16    7    9 1
    17    9   10 2
    18    9   38 1
    19   10   11 1
    20   10   39 1
    21   11   12 2
    22   11   28 1
    23   12   13 1
    24   12   40 1
    25   13   14 1
    26   14   15 1
    27   14   16 1
    28   14   25 1
    29   16   17 1
    30   16   18 1
    31   18   23 ar
    32   18   19 ar
    33   19   20 ar
    34   19   41 1
    35   20   21 ar
    36   20   42 1
    37   21   22 ar
    38   21   24 1
    39   22   23 ar
    40   22   43 1
    41   23   44 1
    42   25   26 2
    43   25   27 am
    44   27   45 1
    45   27   46 1
    46   28   29 2
    47   28   30 am
    48   30   47 1
    49   30   48 1
    50   31   32 3
@<TRIPOS>MOLECULE
ZINC31799529
   41    43     0     0     0
SMALL
USER_CHARGES
1-[(4-amino-5,6-dimethyl-thieno[2,3-d]pyrimidin-2-yl)methyl]-2-oxo-6-(trifluoromethyl)pyridine-3-carboxamide
@<TRIPOS>ATOM
      1 C1          3.3209    5.5163   -6.4975 C.3       1 <0>        -0.1172
      2 C2          3.7178    4.3679   -5.6060 C.2       1 <0>        -0.0927
      3 C3          4.5763    3.4349   -6.0434 C.2       1 <0>        -0.1409
      4 S1          4.7212    2.3204   -4.6592 S.3       1 <0>         0.1119
      5 C4          3.6248    3.1380   -3.5306 C.ar      1 <0>         0.1451
      6 C5          3.1749    4.2584   -4.2633 C.ar      1 <0>        -0.2413
      7 C6          2.2615    5.1069   -3.5795 C.ar      1 <0>         0.4966
      8 N1          1.9025    4.8045   -2.3422 N.ar      1 <0>        -0.5627
      9 C7          2.3647    3.7370   -1.7166 C.ar      1 <0>         0.3524
     10 N2          3.2182    2.9153   -2.2965 N.ar      1 <0>        -0.4959
     11 C8          1.9118    3.4549   -0.3073 C.3       1 <0>         0.1403
     12 N3          0.7085    2.6198   -0.3389 N.am      1 <0>        -0.4665
     13 C9          0.8329    1.2712   -0.3313 C.2       1 <0>         0.0907
     14 C10        -0.2578    0.4635   -0.3599 C.2       1 <0>        -0.1647
     15 C11        -1.5375    1.0165   -0.4037 C.2       1 <0>         0.0516
     16 C12        -1.6735    2.4032   -0.4064 C.2       1 <0>        -0.2394
     17 C13        -0.5035    3.2054   -0.3756 C.2       1 <0>         0.5411
     18 O1         -0.5953    4.4208   -0.3818 O.2       1 <0>        -0.5105
     19 C14        -3.0060    3.0245   -0.4466 C.2       1 <0>         0.5788
     20 O2         -4.0029    2.3305   -0.3808 O.2       1 <0>        -0.5582
     21 N4         -3.1226    4.3627   -0.5565 N.am      1 <0>        -0.8642
     22 C15         2.2079    0.6557   -0.2899 C.3       1 <0>         0.4927
     23 F1          2.0948   -0.7387   -0.2885 F         1 <0>        -0.1604
     24 F2          2.9354    1.0635   -1.4132 F         1 <0>        -0.1182
     25 F3          2.8700    1.0710    0.8704 F         1 <0>        -0.1660
     26 N5          1.7542    6.2343   -4.2000 N.pl3     1 <0>        -0.8509
     27 C16         5.2565    3.3489   -7.3854 C.3       1 <0>        -0.0735
     28 H1          3.8339    5.4229   -7.4660 H         1 <0>         0.0849
     29 H2          3.6066    6.4658   -6.0213 H         1 <0>         0.0761
     30 H3          2.2325    5.4984   -6.6558 H         1 <0>         0.0755
     31 H4          2.7099    2.9275    0.2357 H         1 <0>         0.1322
     32 H5          1.6866    4.4034    0.2023 H         1 <0>         0.1452
     33 H6         -0.1343   -0.6094   -0.3532 H         1 <0>         0.1742
     34 H7         -2.4095    0.3799   -0.4314 H         1 <0>         0.1666
     35 H8         -4.1192    4.8273   -0.5866 H         1 <0>         0.4181
     36 H9         -2.2212    4.9903   -0.6161 H         1 <0>         0.4354
     37 H10         1.0480    6.8860   -3.6647 H         1 <0>         0.4320
     38 H11         2.0570    6.4792   -5.2288 H         1 <0>         0.4335
     39 H12         5.8983    2.4560   -7.4146 H         1 <0>         0.0784
     40 H13         5.8710    4.2475   -7.5432 H         1 <0>         0.0851
     41 H14         4.4967    3.2804   -8.1779 H         1 <0>         0.0848
@<TRIPOS>BOND
     1    1    2 1
     2    1   28 1
     3    1   29 1
     4    1   30 1
     5    2    6 1
     6    2    3 2
     7    3    4 1
     8    3   27 1
     9    4    5 1
    10    5   10 ar
    11    5    6 ar
    12    6    7 ar
    13    7    8 ar
    14    7   26 1
    15    8    9 ar
    16    9   10 ar
    17    9   11 1
    18   11   12 1
    19   11   31 1
    20   11   32 1
    21   12   17 am
    22   12   13 1
    23   13   14 2
    24   13   22 1
    25   14   15 1
    26   14   33 1
    27   15   16 2
    28   15   34 1
    29   16   17 1
    30   16   19 1
    31   17   18 2
    32   19   20 2
    33   19   21 am
    34   21   35 1
    35   21   36 1
    36   22   23 1
    37   22   24 1
    38   22   25 1
    39   26   37 1
    40   26   38 1
    41   27   39 1
    42   27   40 1
    43   27   41 1
@<TRIPOS>MOLECULE
ZINC42896126
   47    48     0     0     0
SMALL
USER_CHARGES

@<TRIPOS>ATOM
      1 C1         -0.0275    1.5255   -0.0166 C.3       1 <0>        -0.1576
      2 C2          0.0021   -0.0041    0.0020 C.3       1 <0>         0.1986
      3 H1          0.5779   -0.3667   -0.8495 H         1 <0>         0.1079
      4 C3          0.6431   -0.4786    1.2807 C.ar      1 <0>        -0.0850
      5 C4         -0.1413   -0.7654    2.3822 C.ar      1 <0>        -0.1062
      6 C5          0.4465   -1.2007    3.5550 C.ar      1 <0>        -0.1077
      7 C6          1.8192   -1.3495    3.6273 C.ar      1 <0>        -0.1055
      8 C7          2.6044   -1.0630    2.5267 C.ar      1 <0>        -0.1033
      9 C8          2.0160   -0.6327    1.3505 C.ar      1 <0>        -0.0281
     10 Cl1         3.0011   -0.2790   -0.0344 Cl        1 <0>        -0.0586
     11 N1         -1.3667   -0.5200   -0.0788 N.am      1 <0>        -0.7394
     12 C9         -1.9429   -0.7164   -1.2812 C.2       1 <0>         0.7103
     13 O1         -1.3268   -0.4655   -2.2989 O.2       1 <0>        -0.5821
     14 N2         -3.2022   -1.1910   -1.3555 N.am      1 <0>        -0.7365
     15 C10        -3.8285   -1.4046   -2.6625 C.3       1 <0>         0.1392
     16 H2         -3.0751   -1.7374   -3.3765 H         1 <0>         0.1136
     17 C11        -4.4500   -0.0944   -3.1505 C.3       1 <0>         0.0685
     18 O2         -5.5166    0.2813   -2.2769 O.3       1 <0>        -0.5553
     19 C12        -4.9188   -2.4707   -2.5375 C.3       1 <0>         0.1404
     20 H3         -5.3239   -2.6936   -3.5245 H         1 <0>         0.1309
     21 C13        -4.3305   -3.7234   -1.9412 C.ar      1 <0>        -0.0638
     22 C14        -4.2353   -3.8569   -0.5686 C.ar      1 <0>        -0.1123
     23 C15        -3.6956   -5.0060   -0.0217 C.ar      1 <0>        -0.0476
     24 C16        -3.2515   -6.0218   -0.8473 C.ar      1 <0>        -0.0482
     25 C17        -3.3474   -5.8887   -2.2199 C.ar      1 <0>        -0.0477
     26 C18        -3.8911   -4.7414   -2.7667 C.ar      1 <0>        -0.1067
     27 N3         -2.6726   -7.2519   -0.2617 N.pl3     1 <0>         0.0320
     28 O3         -2.5883   -7.3681    0.9387 O.2       1 <0>        -0.1559
     29 O4         -2.2842   -8.1403   -0.9838 O.3       1 <0>        -0.1549
     30 O5         -5.9641   -1.9862   -1.6920 O.3       1 <0>        -0.5174
     31 H4          0.9909    1.9094    0.0435 H         1 <0>         0.0707
     32 H5         -0.4911    1.8688   -0.9414 H         1 <0>         0.0685
     33 H6         -0.6033    1.8882    0.8349 H         1 <0>         0.0596
     34 H7         -1.2135   -0.6491    2.3265 H         1 <0>         0.1270
     35 H8         -0.1667   -1.4244    4.4155 H         1 <0>         0.1326
     36 H9          2.2779   -1.6892    4.5441 H         1 <0>         0.1355
     37 H10         3.6767   -1.1789    2.5834 H         1 <0>         0.1375
     38 H11        -1.8583   -0.7201    0.7331 H         1 <0>         0.3940
     39 H12        -3.6938   -1.3912   -0.5436 H         1 <0>         0.3912
     40 H13        -3.6912    0.6882   -3.1548 H         1 <0>         0.0552
     41 H14        -4.8378   -0.2300   -4.1601 H         1 <0>         0.0567
     42 H15        -5.9577    1.1049   -2.5262 H         1 <0>         0.3777
     43 H16        -4.5823   -3.0632    0.0764 H         1 <0>         0.1393
     44 H17        -3.6206   -5.1100    1.0507 H         1 <0>         0.1553
     45 H18        -3.0001   -6.6822   -2.8650 H         1 <0>         0.1567
     46 H19        -3.9695   -4.6390   -3.8390 H         1 <0>         0.1510
     47 H20        -5.6751   -1.7670   -0.7956 H         1 <0>         0.3697
@<TRIPOS>BOND
     1    1    2 1
     2    1   31 1
     3    1   32 1
     4    1   33 1
     5    2    3 1
     6    2    4 1
     7    2   11 1
     8    4    9 ar
     9    4    5 ar
    10    5    6 ar
    11    5   34 1
    12    6    7 ar
    13    6   35 1
    14    7    8 ar
    15    7   36 1
    16    8    9 ar
    17    8   37 1
    18    9   10 1
    19   11   12 am
    20   11   38 1
    21   12   13 2
    22   12   14 am
    23   14   15 1
    24   14   39 1
    25   15   16 1
    26   15   17 1
    27   15   19 1
    28   17   18 1
    29   17   40 1
    30   17   41 1
    31   18   42 1
    32   19   20 1
    33   19   21 1
    34   19   30 1
    35   21   26 ar
    36   21   22 ar
    37   22   23 ar
    38   22   43 1
    39   23   24 ar
    40   23   44 1
    41   24   25 ar
    42   24   27 1
    43   25   26 ar
    44   25   45 1
    45   26   46 1
    46   27   28 2
    47   27   29 1
    48   30   47 1
@<TRIPOS>MOLECULE
ZINC50577822
   42    43     0     0     0
SMALL
USER_CHARGES

@<TRIPOS>ATOM
      1 C1         -1.2691    1.1828    0.1842 C.3       1 <0>        -0.1214
      2 C2         -0.5890   -0.1584    0.0859 C.ar      1 <0>        -0.1064
      3 C3         -0.5784   -0.8380   -1.1114 C.ar      1 <0>        -0.0399
      4 C4          0.0528   -2.0813   -1.2018 C.ar      1 <0>        -0.1410
      5 C5          0.6716   -2.6312   -0.0757 C.ar      1 <0>        -0.0726
      6 C6          0.6576   -1.9469    1.1185 C.ar      1 <0>        -0.1213
      7 C7          0.0325   -0.7061    1.2040 C.ar      1 <0>         0.1596
      8 N1          0.0250   -0.0135    2.4123 N.am      1 <0>        -0.6352
      9 C8         -0.0565   -0.6891    3.5757 C.2       1 <0>         0.5250
     10 O1         -0.0401   -1.9026    3.5752 O.2       1 <0>        -0.4904
     11 C9         -0.1669    0.0558    4.8657 C.2       1 <0>         0.5067
     12 O2         -0.1833    1.2693    4.8662 O.2       1 <0>        -0.5085
     13 N2         -0.2485   -0.6197    6.0291 N.am      1 <0>        -0.4862
     14 N3         -0.3521    0.0790    7.2390 N.pl3     1 <0>        -0.5295
     15 C10        -0.4366   -0.6218    8.4459 C.ar      1 <0>         0.2276
     16 C11        -0.4123   -2.0103    8.4474 C.ar      1 <0>        -0.1748
     17 C12        -0.4955   -2.7002    9.6410 C.ar      1 <0>        -0.0468
     18 C13        -0.6036   -2.0094   10.8353 C.ar      1 <0>        -0.0758
     19 C14        -0.6286   -0.6260   10.8378 C.ar      1 <0>        -0.0454
     20 C15        -0.5395    0.0699    9.6469 C.ar      1 <0>        -0.0930
     21 Cl1        -0.5632    1.8057    9.6508 Cl        1 <0>        -0.0488
     22 Cl2        -0.7085   -2.8804   12.3334 Cl        1 <0>        -0.0566
     23 C16         0.0656   -2.8127   -2.4839 C.2       1 <0>         0.5583
     24 O3         -0.4734   -2.3334   -3.4626 O.2       1 <0>        -0.5338
     25 N4          0.6748   -4.0119   -2.5695 N.am      1 <0>        -0.7316
     26 C17         0.6875   -4.7378   -3.8420 C.3       1 <0>         0.0862
     27 H1         -0.5544    1.9709   -0.0530 H         1 <0>         0.0788
     28 H2         -2.0997    1.2215   -0.5206 H         1 <0>         0.0793
     29 H3         -1.6451    1.3262    1.1972 H         1 <0>         0.0677
     30 H4         -1.0577   -0.4107   -1.9798 H         1 <0>         0.1445
     31 H5          1.1600   -3.5922   -0.1423 H         1 <0>         0.1322
     32 H6          1.1353   -2.3715    1.9891 H         1 <0>         0.1483
     33 H7          0.0785    0.9550    2.4166 H         1 <0>         0.4275
     34 H8         -0.2354   -1.5896    6.0287 H         1 <0>         0.4368
     35 H9         -0.3651    1.0489    7.2394 H         1 <0>         0.4414
     36 H10        -0.3287   -2.5503    7.5158 H         1 <0>         0.1379
     37 H11        -0.4766   -3.7800    9.6423 H         1 <0>         0.1458
     38 H12        -0.7137   -0.0895   11.7712 H         1 <0>         0.1505
     39 H13         1.1049   -4.3943   -1.7887 H         1 <0>         0.4019
     40 H14         1.2219   -5.6797   -3.7176 H         1 <0>         0.0780
     41 H15        -0.3367   -4.9399   -4.1552 H         1 <0>         0.0625
     42 H16         1.1869   -4.1341   -4.5997 H         1 <0>         0.0625
@<TRIPOS>BOND
     1    1    2 1
     2    1   27 1
     3    1   28 1
     4    1   29 1
     5    2    7 ar
     6    2    3 ar
     7    3    4 ar
     8    3   30 1
     9    4    5 ar
    10    4   23 1
    11    5    6 ar
    12    5   31 1
    13    6    7 ar
    14    6   32 1
    15    7    8 1
    16    8    9 am
    17    8   33 1
    18    9   10 2
    19    9   11 1
    20   11   12 2
    21   11   13 am
    22   13   14 1
    23   13   34 1
    24   14   15 1
    25   14   35 1
    26   15   20 ar
    27   15   16 ar
    28   16   17 ar
    29   16   36 1
    30   17   18 ar
    31   17   37 1
    32   18   19 ar
    33   18   22 1
    34   19   20 ar
    35   19   38 1
    36   20   21 1
    37   23   24 2
    38   23   25 am
    39   25   26 1
    40   25   39 1
    41   26   40 1
    42   26   41 1
    43   26   42 1
@<TRIPOS>MOLECULE
ZINC39441243
   47    50     0     0     0
SMALL
USER_CHARGES

@<TRIPOS>ATOM
      1 C1         -0.2405   -3.2334   -1.7205 C.3       1 <0>        -0.1521
      2 C2          1.0322   -2.4606   -2.0727 C.3       1 <0>        -0.0282
      3 H1          1.2686   -2.6108   -3.1261 H         1 <0>         0.1210
      4 C3          2.1739   -2.9600   -1.2254 C.2       1 <0>         0.4089
      5 N1          2.4600   -4.2880   -1.2475 N.am      1 <0>        -0.6471
      6 H2          1.9317   -4.8842   -1.8009 H         1 <0>         0.4184
      7 C4          3.4758   -4.7864   -0.5049 C.2       1 <0>         0.5539
      8 O1          3.7436   -5.9738   -0.5158 O.2       1 <0>        -0.5056
      9 C5          4.2435   -3.8377    0.3153 C.ar      1 <0>        -0.1965
     10 C6          5.3076   -4.2483    1.1157 C.ar      1 <0>        -0.0418
     11 C7          5.9925   -3.3167    1.8646 C.ar      1 <0>        -0.1336
     12 C8          5.6309   -1.9763    1.8273 C.ar      1 <0>        -0.0723
     13 C9          4.5824   -1.5502    1.0435 C.ar      1 <0>        -0.1035
     14 C10         3.8730   -2.4753    0.2749 C.ar      1 <0>         0.1514
     15 N2          2.8371   -2.0984   -0.5157 N.2       1 <0>        -0.4899
     16 S1          0.7731   -0.6931   -1.7572 S.3       1 <0>        -0.1644
     17 C11        -0.3846   -0.1805   -3.0563 C.3       1 <0>         0.4080
     18 H3         -0.0962   -0.6377   -4.0028 H         1 <0>         0.1182
     19 N3         -1.7414   -0.6058   -2.6996 N.am      1 <0>        -0.7405
     20 C12        -2.5356    0.1965   -1.9668 C.2       1 <0>         0.5868
     21 O2         -3.6148   -0.2155   -1.5773 O.2       1 <0>        -0.5596
     22 C13        -2.1341    1.5011   -1.6463 C.2       1 <0>        -0.4061
     23 C14        -1.0305    2.0382   -2.2508 C.2       1 <0>         0.4946
     24 N4         -0.3580    1.2816   -3.1889 N.pl3     1 <0>        -0.5596
     25 C15         0.3315    1.8914   -4.2415 C.ar      1 <0>         0.1264
     26 C16         1.6957    1.6801   -4.3950 C.ar      1 <0>        -0.1199
     27 C17         2.3735    2.2835   -5.4360 C.ar      1 <0>        -0.1046
     28 C18         1.6956    3.0972   -6.3251 C.ar      1 <0>        -0.1131
     29 C19         0.3373    3.3096   -6.1752 C.ar      1 <0>        -0.1048
     30 C20        -0.3475    2.7050   -5.1395 C.ar      1 <0>        -0.1153
     31 N5         -0.6015    3.3015   -1.9320 N.pl3     1 <0>        -0.8423
     32 H4         -0.4518   -3.1201   -0.6572 H         1 <0>         0.0826
     33 H5         -1.0758   -2.8416   -2.3007 H         1 <0>         0.0773
     34 H6         -0.1004   -4.2892   -1.9526 H         1 <0>         0.0710
     35 H7          5.5932   -5.2893    1.1490 H         1 <0>         0.1393
     36 H8          6.8176   -3.6314    2.4864 H         1 <0>         0.1357
     37 H9          6.1787   -1.2594    2.4209 H         1 <0>         0.1368
     38 H10         4.3103   -0.5052    1.0226 H         1 <0>         0.1418
     39 H11        -2.0689   -1.4701   -2.9938 H         1 <0>         0.4040
     40 H12        -2.6937    2.0794   -0.9260 H         1 <0>         0.1467
     41 H13         2.2258    1.0450   -3.7007 H         1 <0>         0.1377
     42 H14         3.4344    2.1199   -5.5556 H         1 <0>         0.1309
     43 H15         2.2281    3.5681   -7.1382 H         1 <0>         0.1284
     44 H16        -0.1892    3.9456   -6.8714 H         1 <0>         0.1302
     45 H17        -1.4091    2.8677   -5.0256 H         1 <0>         0.1268
     46 H18        -1.1247    3.8539   -1.3303 H         1 <0>         0.4209
     47 H19         0.2250    3.6424   -2.3082 H         1 <0>         0.4034
@<TRIPOS>BOND
     1    1    2 1
     2    1   32 1
     3    1   33 1
     4    1   34 1
     5    2    3 1
     6    2    4 1
     7    2   16 1
     8    4   15 2
     9    4    5 1
    10    5    6 1
    11    5    7 am
    12    7    8 2
    13    7    9 1
    14    9   14 ar
    15    9   10 ar
    16   10   11 ar
    17   10   35 1
    18   11   12 ar
    19   11   36 1
    20   12   13 ar
    21   12   37 1
    22   13   14 ar
    23   13   38 1
    24   14   15 1
    25   16   17 1
    26   17   18 1
    27   17   24 1
    28   17   19 1
    29   19   20 am
    30   19   39 1
    31   20   21 2
    32   20   22 1
    33   22   23 2
    34   22   40 1
    35   23   24 1
    36   23   31 1
    37   24   25 1
    38   25   30 ar
    39   25   26 ar
    40   26   27 ar
    41   26   41 1
    42   27   28 ar
    43   27   42 1
    44   28   29 ar
    45   28   43 1
    46   29   30 ar
    47   29   44 1
    48   30   45 1
    49   31   46 1
    50   31   47 1
@<TRIPOS>MOLECULE
ZINC04085426
   55    58     0     0     0
SMALL
USER_CHARGES
6-hydroxy-1,3-dipropyl-5-BLAHyl-pyrimidine-2,4-dione
@<TRIPOS>ATOM
      1 C1          4.2294    1.1047    1.3898 C.3       1 <0>        -0.1541
      2 C2          2.9144    0.3226    1.4045 C.3       1 <0>        -0.1458
      3 C3          2.4553    0.0696   -0.0329 C.3       1 <0>         0.0834
      4 N1          1.1962   -0.6792   -0.0188 N.am      1 <0>        -0.5511
      5 C4          0.0021   -0.0041    0.0020 C.2       1 <0>         0.4816
      6 C5         -1.1660   -0.7070    0.0094 C.2       1 <0>        -0.4075
      7 C6         -1.1178   -2.1124    0.0009 C.2       1 <0>         0.5758
      8 O1         -2.1492   -2.7618    0.0068 O.2       1 <0>        -0.5106
      9 N2          0.0768   -2.7364   -0.0143 N.am      1 <0>        -0.5475
     10 C7          1.2187   -2.0247   -0.0218 C.2       1 <0>         0.7007
     11 O2          2.2866   -2.6058   -0.0356 O.2       1 <0>        -0.4914
     12 C8          0.1324   -4.2003   -0.0232 C.3       1 <0>         0.1054
     13 C9          0.1377   -4.7016   -1.4687 C.3       1 <0>        -0.1336
     14 C10         0.1957   -6.2305   -1.4780 C.3       1 <0>        -0.1517
     15 C11        -2.4903    0.0119    0.0259 C.3       1 <0>         0.2206
     16 H1         -2.3250    1.0860   -0.0593 H         1 <0>         0.1589
     17 C12        -3.2152   -0.2892    1.3163 C.2       1 <0>         0.0354
     18 C13        -4.5376   -0.5836    1.3643 C.2       1 <0>        -0.1496
     19 C14        -4.8709   -0.8188    2.7514 C.ar      1 <0>        -0.0971
     20 C15        -6.0639   -1.1538    3.3996 C.ar      1 <0>        -0.0635
     21 C16        -6.0095   -1.3025    4.7633 C.ar      1 <0>        -0.1378
     22 C17        -4.8341   -1.1318    5.4763 C.ar      1 <0>        -0.0830
     23 C18        -3.6395   -0.7995    4.8615 C.ar      1 <0>        -0.1303
     24 C19        -3.6641   -0.6421    3.4774 C.ar      1 <0>         0.1112
     25 N3         -2.6886   -0.3247    2.5756 N.pl3     1 <0>        -0.5594
     26 H2         -1.7607   -0.1481    2.7963 H         1 <0>         0.4159
     27 C20        -5.4253   -0.6314    0.1462 C.3       1 <0>        -0.0692
     28 C21        -4.6900    0.0691   -1.0047 C.3       1 <0>         0.0004
     29 O3         -0.0162    1.3457    0.0094 O.3       1 <0>        -0.4351
     30 H3          4.9890    0.5282    0.8619 H         1 <0>         0.0674
     31 H4          4.0794    2.0580    0.8831 H         1 <0>         0.0625
     32 H5          4.5564    1.2849    2.4138 H         1 <0>         0.0721
     33 H6          2.1547    0.8991    1.9324 H         1 <0>         0.0682
     34 H7          3.0643   -0.6308    1.9112 H         1 <0>         0.0820
     35 H8          3.2150   -0.5069   -0.5608 H         1 <0>         0.1291
     36 H9          2.3054    1.0230   -0.5396 H         1 <0>         0.1018
     37 H10         1.0405   -4.5324    0.4799 H         1 <0>         0.1049
     38 H11        -0.7381   -4.6001    0.4968 H         1 <0>         0.1084
     39 H12        -0.7704   -4.3695   -1.9718 H         1 <0>         0.0666
     40 H13         1.0082   -4.3018   -1.9888 H         1 <0>         0.0684
     41 H14         1.1038   -6.5627   -0.9749 H         1 <0>         0.0624
     42 H15        -0.6748   -6.6303   -0.9580 H         1 <0>         0.0617
     43 H16         0.1995   -6.5877   -2.5078 H         1 <0>         0.0663
     44 H17        -6.9853   -1.2889    2.8528 H         1 <0>         0.1345
     45 H18        -6.9119   -1.5612    5.2973 H         1 <0>         0.1268
     46 H19        -4.8507   -1.2619    6.5483 H         1 <0>         0.1295
     47 H20        -2.7297   -0.6690    5.4286 H         1 <0>         0.1320
     48 H21        -6.3626   -0.1149    0.3530 H         1 <0>         0.1196
     49 H22        -5.6267   -1.6684   -0.1224 H         1 <0>         0.1009
     50 H23        -4.6589    1.1422   -0.8162 H         1 <0>         0.1331
     51 H24        -5.2157   -0.1205   -1.9405 H         1 <0>         0.1407
     52 H25         0.8617    1.7510    0.0032 H         1 <0>         0.4272
     53 N4         -3.3145   -0.4598   -1.1085 N.4       1 <0>        -0.5126
     54 H26        -3.3456   -1.4861   -1.0996 H         1 <0>         0.4409
     55 H27        -2.8943   -0.1378   -1.9882 H         1 <0>         0.4348
@<TRIPOS>BOND
     1    1    2 1
     2    1   30 1
     3    1   31 1
     4    1   32 1
     5    2    3 1
     6    2   33 1
     7    2   34 1
     8    3    4 1
     9    3   35 1
    10    3   36 1
    11    4   10 am
    12    4    5 1
    13    5    6 2
    14    5   29 1
    15    6    7 1
    16    6   15 1
    17    7    8 2
    18    7    9 am
    19    9   10 am
    20    9   12 1
    21   10   11 2
    22   12   13 1
    23   12   37 1
    24   12   38 1
    25   13   14 1
    26   13   39 1
    27   13   40 1
    28   14   41 1
    29   14   42 1
    30   14   43 1
    31   15   16 1
    32   15   17 1
    33   15   53 1
    34   17   25 1
    35   17   18 2
    36   18   19 1
    37   18   27 1
    38   19   24 ar
    39   19   20 ar
    40   20   21 ar
    41   20   44 1
    42   21   22 ar
    43   21   45 1
    44   22   23 ar
    45   22   46 1
    46   23   24 ar
    47   23   47 1
    48   24   25 1
    49   25   26 1
    50   27   28 1
    51   27   48 1
    52   27   49 1
    53   28   50 1
    54   28   51 1
    55   28   53 1
    56   29   52 1
    57   53   54 1
    58   53   55 1
@<TRIPOS>MOLECULE
ZINC39597553
   62    65     0     0     0
SMALL
USER_CHARGES

@<TRIPOS>ATOM
      1 C1          0.2652    1.5529    0.1406 C.3       1 <0>        -0.1538
      2 C2          0.2110    0.0248    0.0888 C.3       1 <0>        -0.1096
      3 C3          0.9662   -0.4707   -1.1462 C.3       1 <0>        -0.1368
      4 C4          0.8503   -0.5429    1.3298 C.2       1 <0>         0.5438
      5 O1          1.8149   -1.2720    1.2358 O.2       1 <0>        -0.5284
      6 N1          0.3501   -0.2403    2.5442 N.am      1 <0>        -0.6238
      7 C5         -0.8155    0.6194    2.8579 C.3       1 <0>         0.1095
      8 C6         -1.5298   -0.1013    4.0232 C.3       1 <0>        -0.1153
      9 H1         -2.3316   -0.7345    3.6433 H         1 <0>         0.1114
     10 C7         -0.4370   -0.9590    4.6829 C.3       1 <0>        -0.0714
     11 C8          0.8376   -0.6977    3.8675 C.3       1 <0>         0.1063
     12 C9         -0.8090   -2.4368    4.6097 C.3       1 <0>        -0.1337
     13 C10         0.2645   -3.2644    5.3221 C.3       1 <0>        -0.0112
     14 N2          0.3680   -2.8340    6.7217 N.4       1 <0>        -0.5042
     15 C11         0.8161   -1.4376    6.7844 C.3       1 <0>        -0.0079
     16 C12        -0.2339   -0.5327    6.1336 C.3       1 <0>        -0.1463
     17 C13        -2.0761    0.9029    5.0052 C.2       1 <0>         0.5182
     18 O2         -1.5118    1.9646    5.1640 O.2       1 <0>        -0.5203
     19 N3         -3.1917    0.6211    5.7069 N.am      1 <0>        -0.7277
     20 C14        -3.7228    1.5973    6.6614 C.3       1 <0>         0.1206
     21 C15        -4.9846    1.0339    7.3183 C.3       1 <0>        -0.0484
     22 C16        -5.5309    2.0380    8.3003 C.2       1 <0>        -0.1817
     23 C17        -6.4246    3.1579    7.9951 C.ar      1 <0>        -0.1015
     24 C18        -7.0174    3.6352    6.8249 C.ar      1 <0>        -0.0751
     25 C19        -7.8256    4.7361    6.8741 C.ar      1 <0>        -0.1399
     26 C20        -8.0617    5.3842    8.0785 C.ar      1 <0>        -0.0947
     27 C21        -7.4867    4.9300    9.2454 C.ar      1 <0>        -0.1280
     28 C22        -6.6611    3.8110    9.2188 C.ar      1 <0>         0.0952
     29 N4         -5.9577    3.1286   10.1859 N.pl3     1 <0>        -0.5933
     30 C23        -5.2954    2.0725    9.6214 C.2       1 <0>         0.0636
     31 H2          1.3041    1.8780    0.1953 H         1 <0>         0.0637
     32 H3         -0.1972    1.9635   -0.7570 H         1 <0>         0.0749
     33 H4         -0.2728    1.9059    1.0204 H         1 <0>         0.0627
     34 H5         -0.8279   -0.3003    0.0341 H         1 <0>         0.0984
     35 H6          2.0052   -0.1457   -1.0914 H         1 <0>         0.0646
     36 H7          0.9276   -1.5594   -1.1831 H         1 <0>         0.0627
     37 H8          0.5038   -0.0602   -2.0438 H         1 <0>         0.0683
     38 H9         -0.4841    1.6099    3.1698 H         1 <0>         0.1008
     39 H10        -1.4766    0.6933    1.9945 H         1 <0>         0.0958
     40 H11         1.4164   -1.6154    3.7633 H         1 <0>         0.0881
     41 H12         1.4371    0.0795    4.3415 H         1 <0>         0.0831
     42 H13        -1.7719   -2.5942    5.0956 H         1 <0>         0.0964
     43 H14        -0.8729   -2.7447    3.5660 H         1 <0>         0.1175
     44 H15        -0.0069   -4.3195    5.2858 H         1 <0>         0.1397
     45 H16         1.2239   -3.1192    4.8256 H         1 <0>         0.1339
     46 H17        -0.5346   -2.9164    7.1651 H         1 <0>         0.4273
     47 H18         0.9512   -1.1461    7.8260 H         1 <0>         0.1390
     48 H19         1.7625   -1.3358    6.2534 H         1 <0>         0.1331
     49 H20         0.1079    0.5019    6.1644 H         1 <0>         0.1267
     50 H21        -1.1762   -0.6214    6.6742 H         1 <0>         0.0967
     51 H22        -3.6430   -0.2281    5.5798 H         1 <0>         0.4002
     52 H23        -2.9744    1.8008    7.4273 H         1 <0>         0.0705
     53 H24        -3.9675    2.5214    6.1379 H         1 <0>         0.0751
     54 H25        -5.7330    0.8304    6.5524 H         1 <0>         0.0779
     55 H26        -4.7399    0.1097    7.8419 H         1 <0>         0.0725
     56 H27        -6.8377    3.1365    5.8840 H         1 <0>         0.1191
     57 H28        -8.2840    5.1050    5.9685 H         1 <0>         0.1246
     58 H29        -8.7022    6.2534    8.1012 H         1 <0>         0.1284
     59 H30        -7.6762    5.4414   10.1776 H         1 <0>         0.1222
     60 H31        -4.6732    1.3722   10.1587 H         1 <0>         0.1675
     61 H32        -5.9378    3.3595   11.1278 H         1 <0>         0.4187
     62 H33         1.0318   -3.4208    7.2044 H         1 <0>         0.4341
@<TRIPOS>BOND
     1    1    2 1
     2    1   31 1
     3    1   32 1
     4    1   33 1
     5    2    3 1
     6    2    4 1
     7    2   34 1
     8    3   35 1
     9    3   36 1
    10    3   37 1
    11    4    5 2
    12    4    6 am
    13    6   11 1
    14    6    7 1
    15    7    8 1
    16    7   38 1
    17    7   39 1
    18    8    9 1
    19    8   10 1
    20    8   17 1
    21   10   16 1
    22   10   11 1
    23   10   12 1
    24   11   40 1
    25   11   41 1
    26   12   13 1
    27   12   42 1
    28   12   43 1
    29   13   14 1
    30   13   44 1
    31   13   45 1
    32   14   15 1
    33   14   46 1
    34   14   62 1
    35   15   16 1
    36   15   47 1
    37   15   48 1
    38   16   49 1
    39   16   50 1
    40   17   18 2
    41   17   19 am
    42   19   20 1
    43   19   51 1
    44   20   21 1
    45   20   52 1
    46   20   53 1
    47   21   54 1
    48   21   55 1
    49   21   22 1
    50   22   23 1
    51   22   30 2
    52   23   24 ar
    53   23   28 ar
    54   24   25 ar
    55   24   56 1
    56   25   26 ar
    57   25   57 1
    58   26   27 ar
    59   26   58 1
    60   27   28 ar
    61   27   59 1
    62   28   29 1
    63   29   61 1
    64   29   30 1
    65   30   60 1
@<TRIPOS>MOLECULE
ZINC44714300
   62    65     0     0     0
SMALL
USER_CHARGES

@<TRIPOS>ATOM
      1 C1         -0.0085    1.5153    0.0105 C.3       1 <0>        -0.1085
      2 C2         -0.0193    0.0084    0.0003 C.2       1 <0>        -0.0129
      3 C3         -0.0479   -0.7143   -1.1683 C.2       1 <0>        -0.1871
      4 C4         -0.0557   -2.0688   -1.1055 C.2       1 <0>        -0.2134
      5 S1         -0.0246   -2.4049    0.5402 S.3       1 <0>         0.2002
      6 C5          0.0047   -0.7371    1.1691 C.2       1 <0>        -0.2839
      7 C6          0.0424   -0.2744    2.5595 C.2       1 <0>         0.6383
      8 O1          0.1447    0.9136    2.8029 O.2       1 <0>        -0.5173
      9 N1         -0.0361   -1.1647    3.5683 N.am      1 <0>        -0.6233
     10 C7         -0.0367   -2.6438    3.4765 C.3       1 <0>         0.1087
     11 C8          0.8228   -3.1095    4.6731 C.3       1 <0>        -0.1135
     12 H1          1.8535   -3.2736    4.3590 H         1 <0>         0.1135
     13 C9          0.7486   -1.9525    5.6835 C.3       1 <0>        -0.0729
     14 C10        -0.1349   -0.8855    5.0210 C.3       1 <0>         0.1122
     15 C11         2.1418   -1.3878    5.9434 C.3       1 <0>        -0.1355
     16 C12         2.0495   -0.2770    6.9935 C.3       1 <0>        -0.0111
     17 N2          1.4802   -0.8193    8.2331 N.4       1 <0>        -0.5046
     18 C13         0.1056   -1.2759    7.9953 C.3       1 <0>        -0.0080
     19 C14         0.1157   -2.4287    6.9873 C.3       1 <0>        -0.1492
     20 C15         0.2508   -4.3690    5.2713 C.2       1 <0>         0.5206
     21 O2         -0.9286   -4.6205    5.1417 O.2       1 <0>        -0.5188
     22 N3          1.0498   -5.2158    5.9501 N.am      1 <0>        -0.7201
     23 C16         0.4938   -6.4401    6.5316 C.3       1 <0>         0.2230
     24 H2         -0.3390   -6.7871    5.9199 H         1 <0>         0.0998
     25 C17        -0.0008   -6.1519    7.9504 C.3       1 <0>        -0.1577
     26 C18         1.5605   -7.5037    6.5778 C.2       1 <0>        -0.2634
     27 C19         1.4414   -8.7711    6.1189 C.2       1 <0>         0.1193
     28 N4          2.6126   -9.4022    6.3453 N.pl3     1 <0>        -0.4668
     29 H3          2.8176  -10.3230    6.1194 H         1 <0>         0.4442
     30 N5          3.4800   -8.4926    6.9638 N.2       1 <0>        -0.2831
     31 C20         2.8505   -7.3534    7.0971 C.2       1 <0>         0.0816
     32 C21         3.4160   -6.0975    7.7087 C.3       1 <0>        -0.0763
     33 C22         0.2199   -9.3704    5.4711 C.3       1 <0>        -0.1048
     34 H4          1.0214    1.8714   -0.0128 H         1 <0>         0.0792
     35 H5         -0.5418    1.8885   -0.8638 H         1 <0>         0.0706
     36 H6         -0.4973    1.8761    0.9156 H         1 <0>         0.0859
     37 H7         -0.0642   -0.2104   -2.1234 H         1 <0>         0.1418
     38 H8         -0.0773   -2.7709   -1.9258 H         1 <0>         0.1910
     39 H9         -1.0522   -3.0297    3.5650 H         1 <0>         0.1080
     40 H10         0.4129   -2.9664    2.5374 H         1 <0>         0.0903
     41 H11         0.2435    0.1122    5.2433 H         1 <0>         0.0926
     42 H12        -1.1665   -0.9860    5.3584 H         1 <0>         0.0870
     43 H13         2.7936   -2.1811    6.3093 H         1 <0>         0.0968
     44 H14         2.5479   -0.9804    5.0176 H         1 <0>         0.1193
     45 H15         3.0458    0.1173    7.1935 H         1 <0>         0.1403
     46 H16         1.4106    0.5233    6.6202 H         1 <0>         0.1349
     47 H17         2.0416   -1.5965    8.5476 H         1 <0>         0.4274
     48 H18        -0.3309   -1.6179    8.9337 H         1 <0>         0.1400
     49 H19        -0.4872   -0.4518    7.5984 H         1 <0>         0.1338
     50 H20        -0.9069   -2.7550    6.7976 H         1 <0>         0.1269
     51 H21         0.6945   -3.2596    7.3906 H         1 <0>         0.1000
     52 H22         1.9931   -5.0146    6.0537 H         1 <0>         0.3981
     53 H23         0.8320   -5.8049    8.5621 H         1 <0>         0.0569
     54 H24        -0.7723   -5.3826    7.9170 H         1 <0>         0.0600
     55 H25        -0.4145   -7.0628    8.3831 H         1 <0>         0.0715
     56 H26         3.2980   -6.1358    8.7916 H         1 <0>         0.0822
     57 H27         4.4746   -6.0177    7.4612 H         1 <0>         0.0802
     58 H28         2.8846   -5.2308    7.3157 H         1 <0>         0.0647
     59 H29         0.2661   -9.2133    4.3934 H         1 <0>         0.0874
     60 H30         0.1847  -10.4394    5.6812 H         1 <0>         0.0791
     61 H31        -0.6746   -8.8920    5.8700 H         1 <0>         0.0905
     62 H32         1.4768   -0.1016    8.9422 H         1 <0>         0.4344
@<TRIPOS>BOND
     1    1    2 1
     2    1   34 1
     3    1   35 1
     4    1   36 1
     5    2    6 2
     6    2    3 1
     7    3    4 2
     8    3   37 1
     9    4    5 1
    10    4   38 1
    11    5    6 1
    12    6    7 1
    13    7    8 2
    14    7    9 am
    15    9   14 1
    16    9   10 1
    17   10   11 1
    18   10   39 1
    19   10   40 1
    20   11   12 1
    21   11   13 1
    22   11   20 1
    23   13   19 1
    24   13   14 1
    25   13   15 1
    26   14   41 1
    27   14   42 1
    28   15   16 1
    29   15   43 1
    30   15   44 1
    31   16   17 1
    32   16   45 1
    33   16   46 1
    34   17   18 1
    35   17   47 1
    36   17   62 1
    37   18   19 1
    38   18   48 1
    39   18   49 1
    40   19   50 1
    41   19   51 1
    42   20   21 2
    43   20   22 am
    44   22   23 1
    45   22   52 1
    46   23   24 1
    47   23   25 1
    48   23   26 1
    49   25   53 1
    50   25   54 1
    51   25   55 1
    52   26   31 1
    53   26   27 2
    54   27   28 1
    55   27   33 1
    56   28   29 1
    57   28   30 1
    58   30   31 2
    59   31   32 1
    60   32   56 1
    61   32   57 1
    62   32   58 1
    63   33   59 1
    64   33   60 1
    65   33   61 1
@<TRIPOS>MOLECULE
ZINC63386034
   57    61     0     0     0
SMALL
USER_CHARGES

@<TRIPOS>ATOM
      1 C1         -0.6650    0.9761    1.7062 C.3       1 <0>        -0.1713
      2 C2         -0.5092   -0.4551    1.1882 C.3       1 <0>        -0.1503
      3 C3         -1.8300   -0.9212    0.5725 C.3       1 <0>        -0.0046
      4 H1         -2.1409   -0.2115   -0.1942 H         1 <0>         0.1931
      5 C4         -1.6328   -2.3083   -0.0669 C.3       1 <0>        -0.0455
      6 C5         -3.0099   -2.7908   -0.4507 C.2       1 <0>         0.1931
      7 C6         -3.5002   -3.3016   -1.5700 C.ar      1 <0>        -0.2370
      8 C7         -2.8533   -3.7254   -2.8226 C.ar      1 <0>         0.0363
      9 C8         -3.6796   -4.1889   -3.7971 C.ar      1 <0>        -0.1914
     10 C9         -5.0681   -4.2725   -3.6538 C.ar      1 <0>         0.0352
     11 C10        -5.7459   -3.9159   -2.5336 C.ar      1 <0>        -0.2093
     12 C11        -4.9845   -3.4233   -1.4345 C.ar      1 <0>         0.3035
     13 N1         -5.3660   -3.0452   -0.2491 N.pl3     1 <0>        -0.6165
     14 C12        -4.1760   -2.7148    0.5310 C.3       1 <0>         0.0877
     15 H2         -4.0406   -3.4324    1.3401 H         1 <0>         0.1683
     16 C13        -4.1872   -1.2812    1.0644 C.3       1 <0>         0.1475
     17 H3         -4.9391   -1.1866    1.8479 H         1 <0>         0.1691
     18 N2         -2.8552   -0.9868    1.6166 N.4       1 <0>        -0.5028
     19 C14        -4.4994   -0.3243   -0.0572 C.2       1 <0>        -0.4705
     20 C15        -3.7425   -0.3180   -1.1915 C.2       1 <0>         0.4662
     21 N3         -4.0449    0.5609   -2.1999 N.pl3     1 <0>        -0.5897
     22 H4         -3.5095    0.5689   -3.0087 H         1 <0>         0.4490
     23 C16        -5.0796    1.4121   -2.0749 C.2       1 <0>         0.5101
     24 S1         -5.4358    2.4993   -3.3485 S.2       1 <0>        -0.4723
     25 N4         -5.8386    1.4211   -0.9639 N.am      1 <0>        -0.4560
     26 C17        -5.5789    0.5704    0.0487 C.2       1 <0>         0.5664
     27 O1         -6.2725    0.5794    1.0511 O.2       1 <0>        -0.5076
     28 C18        -6.9108    2.3191   -0.8608 C.ar      1 <0>         0.0701
     29 C19        -6.7101    3.5810   -0.3177 C.ar      1 <0>        -0.0399
     30 C20        -7.7661    4.4647   -0.2164 C.ar      1 <0>        -0.1393
     31 C21        -9.0276    4.0919   -0.6572 C.ar      1 <0>         0.1581
     32 C22        -9.2289    2.8310   -1.1996 C.ar      1 <0>        -0.1975
     33 C23        -8.1723    1.9487   -1.3071 C.ar      1 <0>        -0.0380
     34 O2        -10.0671    4.9625   -0.5573 O.3       1 <0>        -0.3095
     35 C24       -11.3381    4.5124   -1.0307 C.3       1 <0>         0.0227
     36 O3         -2.7033   -1.1701   -1.3206 O.3       1 <0>        -0.5241
     37 H5          0.2760    1.3082    2.1448 H         1 <0>         0.0844
     38 H6         -0.9329    1.6344    0.8797 H         1 <0>         0.0694
     39 H7         -1.4490    1.0054    2.4629 H         1 <0>         0.0499
     40 H8          0.2748   -0.4844    0.4315 H         1 <0>         0.1126
     41 H9         -0.2413   -1.1134    2.0146 H         1 <0>         0.0848
     42 H10        -1.0035   -2.2267   -0.9532 H         1 <0>         0.1444
     43 H11        -1.1827   -2.9923    0.6525 H         1 <0>         0.0959
     44 H12        -1.7834   -3.6708   -2.9595 H         1 <0>         0.1548
     45 H13        -3.2411   -4.5089   -4.7308 H         1 <0>         0.1411
     46 H14        -5.6394   -4.6457   -4.4909 H         1 <0>         0.1435
     47 H15        -6.8209   -4.0024   -2.4772 H         1 <0>         0.1534
     48 H16        -2.6047   -1.7070    2.2774 H         1 <0>         0.4154
     49 H17        -5.7281    3.8712    0.0258 H         1 <0>         0.1297
     50 H18        -7.6102    5.4462    0.2063 H         1 <0>         0.1443
     51 H19       -10.2113    2.5412   -1.5423 H         1 <0>         0.1400
     52 H20        -8.3281    0.9688   -1.7337 H         1 <0>         0.1233
     53 H21       -12.0774    5.3015   -0.8928 H         1 <0>         0.1071
     54 H22       -11.2644    4.2646   -2.0896 H         1 <0>         0.0608
     55 H23       -11.6420    3.6280   -0.4708 H         1 <0>         0.0589
     56 H24        -6.2829   -2.9918    0.0628 H         1 <0>         0.4480
     57 H25        -2.8906   -0.1004    2.0975 H         1 <0>         0.4351
@<TRIPOS>BOND
     1    1    2 1
     2    1   37 1
     3    1   38 1
     4    1   39 1
     5    2    3 1
     6    2   40 1
     7    2   41 1
     8    3    4 1
     9    3   18 1
    10    3    5 1
    11    5    6 1
    12    5   42 1
    13    5   43 1
    14    6   14 1
    15    6    7 2
    16    7   12 ar
    17    7    8 ar
    18    8    9 ar
    19    8   44 1
    20    9   10 ar
    21    9   45 1
    22   10   11 ar
    23   10   46 1
    24   11   12 ar
    25   11   47 1
    26   12   13 2
    27   13   14 1
    28   13   56 1
    29   14   15 1
    30   14   16 1
    31   16   17 1
    32   16   18 1
    33   16   19 1
    34   18   48 1
    35   18   57 1
    36   19   26 1
    37   19   20 2
    38   20   36 1
    39   20   21 1
    40   21   22 1
    41   21   23 1
    42   23   24 2
    43   23   25 1
    44   25   26 am
    45   25   28 1
    46   26   27 2
    47   28   33 ar
    48   28   29 ar
    49   29   30 ar
    50   29   49 1
    51   30   31 ar
    52   30   50 1
    53   31   32 ar
    54   31   34 1
    55   32   33 ar
    56   32   51 1
    57   33   52 1
    58   34   35 1
    59   35   53 1
    60   35   54 1
    61   35   55 1
@<TRIPOS>MOLECULE
ZINC66120585
   60    62     0     0     0
SMALL
USER_CHARGES

@<TRIPOS>ATOM
      1 C1         -0.0251    1.3921    0.0103 C.ar      1 <0>        -0.0661
      2 C2          1.1590    2.1046    0.0030 C.ar      1 <0>        -0.1510
      3 C3          2.3700    1.4337   -0.0139 C.ar      1 <0>         0.1405
      4 C4          2.3932    0.0493   -0.0235 C.ar      1 <0>        -0.1506
      5 C5          1.2079   -0.6611   -0.0161 C.ar      1 <0>        -0.0612
      6 C6         -0.0007    0.0099    0.0008 C.ar      1 <0>        -0.1764
      7 C7         -1.2926   -0.7660    0.0088 C.3       1 <0>         0.0461
      8 N1         -1.7266   -1.0088   -1.3735 N.4       1 <0>        -0.3839
      9 C8         -2.0371    0.2721   -2.0194 C.3       1 <0>        -0.0072
     10 C9         -2.4118    0.0318   -3.4835 C.3       1 <0>        -0.1549
     11 C10        -3.6373   -0.8843   -3.5474 C.3       1 <0>         0.1563
     12 C11        -3.3270   -2.1879   -2.8062 C.3       1 <0>        -0.1611
     13 C12        -2.9185   -1.8654   -1.3672 C.3       1 <0>        -0.0026
     14 N2         -3.9555   -1.1799   -4.9465 N.am      1 <0>        -0.7463
     15 C13        -5.2132   -1.5164   -5.2950 C.2       1 <0>         0.7106
     16 O1         -6.0630   -1.6629   -4.4378 O.2       1 <0>        -0.5850
     17 N3         -5.5289   -1.6904   -6.5936 N.am      1 <0>        -0.6216
     18 C14        -4.4895   -1.6358   -7.6306 C.3       1 <0>         0.1100
     19 C15        -4.5631   -2.9148   -8.4705 C.3       1 <0>        -0.1353
     20 C16        -5.9842   -3.0828   -9.0132 C.3       1 <0>        -0.1183
     21 C17        -6.9656   -3.2140   -7.8462 C.3       1 <0>        -0.1012
     22 H1         -6.6869   -4.0695   -7.2310 H         1 <0>         0.0760
     23 C18        -6.9182   -1.9444   -6.9987 C.3       1 <0>         0.1282
     24 C19        -8.3815   -3.4155   -8.3899 C.3       1 <0>        -0.0991
     25 C20        -9.3427   -3.6709   -7.2273 C.3       1 <0>        -0.1450
     26 C21       -10.7373   -3.8694   -7.7628 C.2       1 <0>         0.5135
     27 O2        -10.9422   -3.8122   -8.9568 O.2       1 <0>        -0.5414
     28 N4        -11.7568   -4.1104   -6.9149 N.am      1 <0>        -0.8581
     29 F1          3.5282    2.1293   -0.0215 F         1 <0>        -0.1219
     30 H2         -0.9698    1.9152    0.0280 H         1 <0>         0.1427
     31 H3          1.1397    3.1845    0.0101 H         1 <0>         0.1500
     32 H4          3.3372   -0.4751   -0.0370 H         1 <0>         0.1498
     33 H5          1.2257   -1.7409   -0.0239 H         1 <0>         0.1425
     34 H6         -1.1407   -1.7195    0.5147 H         1 <0>         0.1404
     35 H7         -2.0570   -0.1936    0.5343 H         1 <0>         0.1389
     36 H8         -2.8729    0.7452   -1.5039 H         1 <0>         0.1339
     37 H9         -1.1651    0.9242   -1.9703 H         1 <0>         0.1358
     38 H10        -2.6437    0.9839   -3.9608 H         1 <0>         0.1191
     39 H11        -1.5765   -0.4411   -4.0000 H         1 <0>         0.0930
     40 H12        -4.4867   -0.3901   -3.0757 H         1 <0>         0.1050
     41 H13        -4.2132   -2.8225   -2.7994 H         1 <0>         0.1198
     42 H14        -2.5108   -2.7069   -3.3087 H         1 <0>         0.0885
     43 H15        -2.6971   -2.7915   -0.8366 H         1 <0>         0.1351
     44 H16        -3.7355   -1.3467   -0.8656 H         1 <0>         0.1335
     45 H17        -3.2609   -1.1336   -5.6221 H         1 <0>         0.4006
     46 H18        -4.6562   -0.7688   -8.2698 H         1 <0>         0.0760
     47 H19        -3.5085   -1.5629   -7.1611 H         1 <0>         0.0724
     48 H20        -3.8620   -2.8449   -9.3021 H         1 <0>         0.0807
     49 H21        -4.3071   -3.7732   -7.8493 H         1 <0>         0.0670
     50 H22        -6.2486   -2.2126   -9.6140 H         1 <0>         0.0698
     51 H23        -6.0332   -3.9791   -9.6315 H         1 <0>         0.0731
     52 H24        -7.5392   -2.0751   -6.1124 H         1 <0>         0.0967
     53 H25        -7.2874   -1.1031   -7.5852 H         1 <0>         0.0714
     54 H26        -8.6939   -2.5218   -8.9300 H         1 <0>         0.0756
     55 H27        -8.3929   -4.2709   -9.0654 H         1 <0>         0.0787
     56 H28        -9.0302   -4.5646   -6.6872 H         1 <0>         0.0947
     57 H29        -9.3312   -2.8155   -6.5518 H         1 <0>         0.0950
     58 H30       -11.5929   -4.1561   -5.9599 H         1 <0>         0.4017
     59 H31       -12.6544   -4.2382   -7.2596 H         1 <0>         0.4032
     60 H32        -0.9859   -1.4686   -1.8816 H         1 <0>         0.4222
@<TRIPOS>BOND
     1    1    6 ar
     2    1    2 ar
     3    1   30 1
     4    2    3 ar
     5    2   31 1
     6    3    4 ar
     7    3   29 1
     8    4    5 ar
     9    4   32 1
    10    5    6 ar
    11    5   33 1
    12    6    7 1
    13    7    8 1
    14    7   34 1
    15    7   35 1
    16    8   13 1
    17    8    9 1
    18    8   60 1
    19    9   10 1
    20    9   36 1
    21    9   37 1
    22   10   11 1
    23   10   38 1
    24   10   39 1
    25   11   12 1
    26   11   14 1
    27   11   40 1
    28   12   13 1
    29   12   41 1
    30   12   42 1
    31   13   43 1
    32   13   44 1
    33   14   15 am
    34   14   45 1
    35   15   16 2
    36   15   17 am
    37   17   23 1
    38   17   18 1
    39   18   19 1
    40   18   46 1
    41   18   47 1
    42   19   20 1
    43   19   48 1
    44   19   49 1
    45   20   21 1
    46   20   50 1
    47   20   51 1
    48   21   22 1
    49   21   23 1
    50   21   24 1
    51   23   52 1
    52   23   53 1
    53   24   25 1
    54   24   54 1
    55   24   55 1
    56   25   26 1
    57   25   56 1
    58   25   57 1
    59   26   27 2
    60   26   28 am
    61   28   58 1
    62   28   59 1
@<TRIPOS>MOLECULE
ZINC67620120
   57    58     0     0     0
SMALL
USER_CHARGES

@<TRIPOS>ATOM
      1 C1         -2.1580    1.5667    1.1243 C.3       1 <0>        -0.1545
      2 C2         -2.2217    0.0382    1.1505 C.3       1 <0>        -0.1046
      3 C3         -1.6741   -0.4743    2.4856 C.3       1 <0>        -0.1421
      4 C4         -1.6666   -2.0045    2.4740 C.3       1 <0>        -0.0115
      5 N1         -0.8166   -2.4849    1.3780 N.4       1 <0>        -0.3778
      6 C5         -1.3757   -2.0574    0.0899 C.3       1 <0>        -0.0067
      7 C6         -1.3720   -0.5293    0.0098 C.3       1 <0>        -0.1435
      8 C7         -0.7502   -3.9518    1.4187 C.3       1 <0>        -0.0432
      9 C8         -0.0232   -4.3944    2.6901 C.3       1 <0>         0.0716
     10 H1         -0.5625   -4.0274    3.5634 H         1 <0>         0.1301
     11 C9          0.0410   -5.9224    2.7352 C.3       1 <0>         0.1129
     12 N2          0.6296   -6.3490    4.0071 N.am      1 <0>        -0.7465
     13 C10         0.7865   -7.6615    4.2704 C.2       1 <0>         0.7078
     14 O1          0.4395   -8.4914    3.4524 O.2       1 <0>        -0.5825
     15 N3          1.3281   -8.0540    5.4405 N.am      1 <0>        -0.7348
     16 C11         1.4986   -9.4806    5.7267 C.3       1 <0>         0.2065
     17 H2          1.7436  -10.0092    4.8055 H         1 <0>         0.0994
     18 C12         0.1997  -10.0431    6.3075 C.3       1 <0>        -0.1605
     19 C13         2.6148   -9.6632    6.7227 C.ar      1 <0>        -0.1228
     20 C14         2.7432   -8.7862    7.7839 C.ar      1 <0>        -0.0804
     21 C15         3.7657   -8.9511    8.6980 C.ar      1 <0>        -0.1302
     22 C16         4.6639   -9.9981    8.5508 C.ar      1 <0>         0.1116
     23 C17         4.5326  -10.8770    7.4854 C.ar      1 <0>        -0.1838
     24 C18         3.5053  -10.7108    6.5770 C.ar      1 <0>        -0.0655
     25 O2          5.6710  -10.1623    9.4485 O.3       1 <0>        -0.3197
     26 C19         6.5582  -11.2618    9.2343 C.3       1 <0>         0.4117
     27 F1          5.8330  -12.4580    9.2599 F         1 <0>        -0.1959
     28 F2          7.1826  -11.1217    7.9902 F         1 <0>        -0.1971
     29 O3          1.3028   -3.8617    2.6905 O.3       1 <0>        -0.5509
     30 H3         -2.5414    1.9300    0.1709 H         1 <0>         0.0676
     31 H4         -2.7630    1.9695    1.9365 H         1 <0>         0.0677
     32 H5         -1.1241    1.8894    1.2469 H         1 <0>         0.0622
     33 H6         -3.2555   -0.2856    1.0308 H         1 <0>         0.0887
     34 H7         -0.6579   -0.1065    2.6276 H         1 <0>         0.0892
     35 H8         -2.3072   -0.1196    3.2990 H         1 <0>         0.1126
     36 H9         -1.2775   -2.3727    3.4232 H         1 <0>         0.1297
     37 H10        -2.6832   -2.3712    2.3322 H         1 <0>         0.1294
     38 H11        -0.7718   -2.4648   -0.7210 H         1 <0>         0.1308
     39 H12        -2.3985   -2.4230   -0.0010 H         1 <0>         0.1294
     40 H13        -1.7891   -0.2139   -0.9465 H         1 <0>         0.1134
     41 H14        -0.3495   -0.1626    0.1004 H         1 <0>         0.0887
     42 H15        -1.7603   -4.3614    1.4164 H         1 <0>         0.1446
     43 H16        -0.2088   -4.3154    0.5453 H         1 <0>         0.1397
     44 H17        -0.9655   -6.3311    2.6454 H         1 <0>         0.0863
     45 H18         0.6552   -6.2847    1.9109 H         1 <0>         0.0815
     46 H19         0.9065   -5.6869    4.6597 H         1 <0>         0.4020
     47 H20         1.6049   -7.3919    6.0931 H         1 <0>         0.3968
     48 H21        -0.6076   -9.9110    5.5871 H         1 <0>         0.0654
     49 H22         0.3266  -11.1045    6.5205 H         1 <0>         0.0724
     50 H23        -0.0453   -9.5144    7.2287 H         1 <0>         0.0596
     51 H24         2.0437   -7.9713    7.8980 H         1 <0>         0.1290
     52 H25         3.8660   -8.2654    9.5263 H         1 <0>         0.1380
     53 H26         5.2306  -11.6928    7.3687 H         1 <0>         0.1380
     54 H27         3.4000  -11.3973    5.7499 H         1 <0>         0.1335
     55 H28         7.3133  -11.2778   10.0201 H         1 <0>         0.1859
     56 H29         1.8415   -4.1470    1.9398 H         1 <0>         0.3938
     57 H30         0.1123   -2.1052    1.4829 H         1 <0>         0.4268
@<TRIPOS>BOND
     1    1    2 1
     2    1   30 1
     3    1   31 1
     4    1   32 1
     5    2    7 1
     6    2    3 1
     7    2   33 1
     8    3    4 1
     9    3   34 1
    10    3   35 1
    11    4    5 1
    12    4   36 1
    13    4   37 1
    14    5    6 1
    15    5    8 1
    16    5   57 1
    17    6    7 1
    18    6   38 1
    19    6   39 1
    20    7   40 1
    21    7   41 1
    22    8    9 1
    23    8   42 1
    24    8   43 1
    25    9   10 1
    26    9   11 1
    27    9   29 1
    28   11   12 1
    29   11   44 1
    30   11   45 1
    31   12   13 am
    32   12   46 1
    33   13   14 2
    34   13   15 am
    35   15   16 1
    36   15   47 1
    37   16   17 1
    38   16   18 1
    39   16   19 1
    40   18   48 1
    41   18   49 1
    42   18   50 1
    43   19   24 ar
    44   19   20 ar
    45   20   21 ar
    46   20   51 1
    47   21   22 ar
    48   21   52 1
    49   22   23 ar
    50   22   25 1
    51   23   24 ar
    52   23   53 1
    53   24   54 1
    54   25   26 1
    55   26   27 1
    56   26   28 1
    57   26   55 1
    58   29   56 1
@<TRIPOS>MOLECULE
ZINC24440683
   51    53     0     0     0
SMALL
USER_CHARGES
(3S)-3-(2-chlorophenyl)-N-[(S)-(2-fluorophenyl)-(1-methylimidazol-2-yl)methyl]-3-ureido-propanamide
@<TRIPOS>ATOM
      1 C1          2.5095    6.5934    1.7017 C.3       1 <0>         0.0567
      2 N1          2.9365    5.2829    2.1981 N.pl3     1 <0>        -0.4444
      3 C2          3.4027    5.0025    3.4541 C.2       1 <0>        -0.0523
      4 C3          3.6838    3.6858    3.4805 C.2       1 <0>        -0.0297
      5 N2          3.3918    3.1749    2.2752 N.2       1 <0>        -0.4730
      6 C4          2.9404    4.1251    1.5029 C.2       1 <0>         0.1933
      7 C5          2.5021    3.9591    0.0706 C.3       1 <0>         0.2867
      8 H1          2.4486    4.9388   -0.4268 H         1 <0>         0.1090
      9 C6          1.1567    3.2812    0.0324 C.ar      1 <0>        -0.1207
     10 C7          1.0774    1.9109   -0.1305 C.ar      1 <0>        -0.0704
     11 C8         -0.1564    1.2889   -0.1661 C.ar      1 <0>        -0.1212
     12 C9         -1.3128    2.0370   -0.0441 C.ar      1 <0>        -0.0853
     13 C10        -1.2358    3.4064    0.1241 C.ar      1 <0>        -0.1483
     14 C11        -0.0003    4.0307    0.1599 C.ar      1 <0>         0.1081
     15 F1          0.0761    5.3700    0.3196 F         1 <0>        -0.1373
     16 N3          3.4818    3.1409   -0.6482 N.am      1 <0>        -0.7251
     17 C12         4.5760    3.7162   -1.1851 C.2       1 <0>         0.5306
     18 O1          4.7495    4.9113   -1.0732 O.2       1 <0>        -0.5416
     19 C13         5.5839    2.8745   -1.9245 C.3       1 <0>        -0.1635
     20 C14         6.7202    3.7659   -2.4297 C.3       1 <0>         0.2349
     21 H2          7.1535    4.3567   -1.6092 H         1 <0>         0.1052
     22 C15         7.7874    2.9096   -3.0613 C.ar      1 <0>        -0.0895
     23 C16         7.5169    1.5926   -3.3824 C.ar      1 <0>        -0.0632
     24 C17         8.4943    0.8083   -3.9656 C.ar      1 <0>        -0.1205
     25 C18         9.7461    1.3378   -4.2195 C.ar      1 <0>        -0.1033
     26 C19        10.0193    2.6528   -3.8942 C.ar      1 <0>        -0.1196
     27 C20         9.0397    3.4398   -3.3147 C.ar      1 <0>        -0.0206
     28 Cl1         9.3824    5.0916   -2.9052 Cl        1 <0>        -0.0704
     29 N4          6.1977    4.7070   -3.4234 N.am      1 <0>        -0.7387
     30 C21         5.7015    4.2490   -4.5898 C.2       1 <0>         0.7086
     31 O2          5.6027    3.0522   -4.7803 O.2       1 <0>        -0.6009
     32 N5          5.3148    5.1176   -5.5451 N.am      1 <0>        -0.8934
     33 H3          2.6217    7.3421    2.4997 H         1 <0>         0.0912
     34 H4          1.4551    6.5425    1.3923 H         1 <0>         0.0886
     35 H5          3.1310    6.8795    0.8404 H         1 <0>         0.0864
     36 H6          3.5260    5.7035    4.2664 H         1 <0>         0.1750
     37 H7          4.0761    3.1373    4.3241 H         1 <0>         0.1706
     38 H8          1.9799    1.3260   -0.2297 H         1 <0>         0.1343
     39 H9         -0.2174    0.2182   -0.2938 H         1 <0>         0.1359
     40 H10        -2.2764    1.5504   -0.0762 H         1 <0>         0.1368
     41 H11        -2.1391    3.9900    0.2238 H         1 <0>         0.1392
     42 H12         3.3244    2.0570   -0.7498 H         1 <0>         0.4247
     43 H13         5.9913    2.1101   -1.2464 H         1 <0>         0.1043
     44 H14         5.0953    2.3836   -2.7791 H         1 <0>         0.1241
     45 H15         6.5406    1.1772   -3.1805 H         1 <0>         0.1346
     46 H16         8.2815   -0.2196   -4.2194 H         1 <0>         0.1279
     47 H17        10.5105    0.7235   -4.6718 H         1 <0>         0.1299
     48 H18        10.9973    3.0661   -4.0919 H         1 <0>         0.1309
     49 H19         6.2103    5.7875   -3.2176 H         1 <0>         0.4210
     50 H20         4.9098    4.7438   -6.4971 H         1 <0>         0.4332
     51 H21         5.4042    6.2003   -5.3728 H         1 <0>         0.4113
@<TRIPOS>BOND
     1    1    2 1
     2    1   33 1
     3    1   34 1
     4    1   35 1
     5    2    6 1
     6    2    3 1
     7    3    4 2
     8    3   36 1
     9    4    5 1
    10    4   37 1
    11    5    6 2
    12    6    7 1
    13    7    8 1
    14    7    9 1
    15    7   16 1
    16    9   14 ar
    17    9   10 ar
    18   10   11 ar
    19   10   38 1
    20   11   12 ar
    21   11   39 1
    22   12   13 ar
    23   12   40 1
    24   13   14 ar
    25   13   41 1
    26   14   15 1
    27   16   17 am
    28   16   42 1
    29   17   18 2
    30   17   19 1
    31   19   20 1
    32   19   43 1
    33   19   44 1
    34   20   21 1
    35   20   22 1
    36   20   29 1
    37   22   27 ar
    38   22   23 ar
    39   23   24 ar
    40   23   45 1
    41   24   25 ar
    42   24   46 1
    43   25   26 ar
    44   25   47 1
    45   26   27 ar
    46   26   48 1
    47   27   28 1
    48   29   30 am
    49   29   49 1
    50   30   31 2
    51   30   32 am
    52   32   50 1
    53   32   51 1
@<TRIPOS>MOLECULE
ZINC45368291
   50    53     0     0     0
SMALL
USER_CHARGES

@<TRIPOS>ATOM
      1 C1         -0.0167    1.3780    0.0096 C.ar      1 <0>        -0.0731
      2 C2          1.1708    2.0857    0.0021 C.ar      1 <0>        -0.1130
      3 C3          2.3780    1.4104   -0.0131 C.ar      1 <0>        -0.0155
      4 C4          2.3961    0.0268   -0.0207 C.ar      1 <0>        -0.0890
      5 C5          1.2084   -0.6796   -0.0132 C.ar      1 <0>        -0.0671
      6 C6          0.0021   -0.0041    0.0020 C.ar      1 <0>        -0.0708
      7 C7         -1.2928   -0.7750    0.0108 C.3       1 <0>         0.1394
      8 H1         -1.1147   -1.7887   -0.3479 H         1 <0>         0.0833
      9 C8         -1.8458   -0.8279    1.4373 C.3       1 <0>         0.0966
     10 H2         -1.9858    0.1862    1.8116 H         1 <0>         0.0752
     11 C9         -3.1910   -1.5605    1.4283 C.3       1 <0>         0.0385
     12 H3         -3.0435   -2.5897    1.1011 H         1 <0>         0.0791
     13 C10        -4.1419   -0.8471    0.4623 C.3       1 <0>         0.0486
     14 H4         -4.3284    0.1666    0.8168 H         1 <0>         0.0798
     15 C11        -3.5002   -0.7934   -0.9266 C.3       1 <0>         0.0990
     16 H5         -3.3512   -1.8074   -1.2977 H         1 <0>         0.0810
     17 O1         -2.2389   -0.1270   -0.8420 O.3       1 <0>        -0.3422
     18 C12        -4.4179   -0.0297   -1.8835 C.3       1 <0>         0.0895
     19 O2         -3.8757   -0.0794   -3.2047 O.3       1 <0>        -0.5657
     20 O3         -5.3767   -1.5630    0.3918 O.3       1 <0>        -0.5520
     21 O4         -3.7487   -1.5523    2.7439 O.3       1 <0>        -0.5570
     22 O5         -0.9265   -1.5253    2.2803 O.3       1 <0>        -0.5481
     23 C13         3.7108   -0.7096   -0.0378 C.3       1 <0>         0.0116
     24 C14         4.2557   -0.7323   -1.4426 C.2       1 <0>         0.0224
     25 N1          5.0527    0.1288   -2.0347 N.2       1 <0>        -0.2767
     26 N2          5.4327   -0.0193   -3.2308 N.2       1 <0>        -0.2364
     27 C15         5.0106   -1.0813   -3.9084 C.2       1 <0>         0.0573
     28 S1          4.0066   -1.8726   -2.6590 S.3       1 <0>         0.1136
     29 C16         5.2950   -1.4943   -5.2997 C.ar      1 <0>         0.0331
     30 C17         4.7375   -2.6627   -5.8313 C.ar      1 <0>        -0.1491
     31 C18         5.0290   -3.0101   -7.1340 C.ar      1 <0>         0.1078
     32 N3          5.8208   -2.2583   -7.8747 N.ar      1 <0>        -0.4728
     33 C19         6.3669   -1.1496   -7.4128 C.ar      1 <0>         0.1069
     34 C20         6.1244   -0.7244   -6.1232 C.ar      1 <0>        -0.1265
     35 Cl1         3.8696    2.2984   -0.0231 Cl        1 <0>        -0.0444
     36 H6         -0.9592    1.9050    0.0260 H         1 <0>         0.1366
     37 H7          1.1560    3.1655    0.0077 H         1 <0>         0.1384
     38 H8          1.2224   -1.7595   -0.0195 H         1 <0>         0.1357
     39 H9         -5.4077   -0.4861   -1.8795 H         1 <0>         0.0743
     40 H10        -4.4953    1.0088   -1.5613 H         1 <0>         0.0551
     41 H11        -4.4070    0.3855   -3.8656 H         1 <0>         0.3844
     42 H12        -5.8360   -1.6393    1.2393 H         1 <0>         0.3834
     43 H13        -4.6030   -2.0002    2.8118 H         1 <0>         0.3838
     44 H14        -1.2136   -1.5968    3.2009 H         1 <0>         0.3914
     45 H15         4.4191   -0.2039    0.6185 H         1 <0>         0.1199
     46 H16         3.5594   -1.7316    0.3098 H         1 <0>         0.1106
     47 H17         4.0890   -3.2832   -5.2305 H         1 <0>         0.1401
     48 H18         4.6036   -3.9099   -7.5533 H         1 <0>         0.1663
     49 H19         7.0094   -0.5649   -8.0545 H         1 <0>         0.1672
     50 H20         6.5713    0.1864   -5.7531 H         1 <0>         0.1495
@<TRIPOS>BOND
     1    1    6 ar
     2    1    2 ar
     3    1   36 1
     4    2    3 ar
     5    2   37 1
     6    3    4 ar
     7    3   35 1
     8    4    5 ar
     9    4   23 1
    10    5    6 ar
    11    5   38 1
    12    6    7 1
    13    7    8 1
    14    7   17 1
    15    7    9 1
    16    9   10 1
    17    9   11 1
    18    9   22 1
    19   11   12 1
    20   11   13 1
    21   11   21 1
    22   13   14 1
    23   13   15 1
    24   13   20 1
    25   15   16 1
    26   15   17 1
    27   15   18 1
    28   18   19 1
    29   18   39 1
    30   18   40 1
    31   19   41 1
    32   20   42 1
    33   21   43 1
    34   22   44 1
    35   23   24 1
    36   23   45 1
    37   23   46 1
    38   24   28 1
    39   24   25 2
    40   25   26 1
    41   26   27 2
    42   27   28 1
    43   27   29 1
    44   29   34 ar
    45   29   30 ar
    46   30   31 ar
    47   30   47 1
    48   31   32 ar
    49   31   48 1
    50   32   33 ar
    51   33   34 ar
    52   33   49 1
    53   34   50 1
@<TRIPOS>MOLECULE
ZINC55161987
   58    61     0     0     0
SMALL
USER_CHARGES

@<TRIPOS>ATOM
      1 C1          1.5353    1.5409   -0.6302 C.3       1 <0>        -0.1495
      2 C2          0.5398    0.4451   -0.2441 C.3       1 <0>         0.0564
      3 C3          1.0309   -0.2689    1.0168 C.3       1 <0>        -0.0560
      4 C4          2.4303   -0.7807    0.7914 C.ar      1 <0>        -0.0655
      5 C5          2.6281   -2.0459    0.2709 C.ar      1 <0>        -0.1055
      6 C6          3.9117   -2.5154    0.0642 C.ar      1 <0>        -0.1235
      7 C7          4.9976   -1.7194    0.3775 C.ar      1 <0>        -0.1244
      8 C8          4.7998   -0.4538    0.8972 C.ar      1 <0>        -0.1188
      9 C9          3.5161    0.0173    1.0999 C.ar      1 <0>        -0.1119
     10 C10        -0.8090    1.0627    0.0214 C.2       1 <0>         0.4979
     11 O1         -1.7957    0.6456   -0.5608 O.co2     1 <0>        -0.7304
     12 O2         -0.9135    1.9793    0.8184 O.co2     1 <0>        -0.6479
     13 O3          0.4302   -0.4970   -1.3130 O.3       1 <0>        -0.3583
     14 C11        -0.0445    0.0659   -2.5376 C.3       1 <0>         0.0925
     15 H1         -0.5256    1.0235   -2.3384 H         1 <0>         0.1174
     16 C12        -1.0508   -0.8909   -3.1890 C.3       1 <0>         0.0212
     17 H2         -0.5857   -1.8669   -3.3279 H         1 <0>         0.1519
     18 C13        -1.4847   -0.3359   -4.5468 C.3       1 <0>         0.2495
     19 H3         -2.1498   -1.0493   -5.0334 H         1 <0>         0.1272
     20 O4         -0.3380   -0.1146   -5.3745 O.3       1 <0>        -0.3632
     21 C14         0.5850    0.8215   -4.8227 C.3       1 <0>         0.0238
     22 H4          0.0754    1.7670   -4.6368 H         1 <0>         0.0947
     23 C15         1.1274    0.2696   -3.4978 C.3       1 <0>         0.0410
     24 H5          1.6186   -0.6864   -3.6797 H         1 <0>         0.0847
     25 O5          2.0732    1.1978   -2.9674 O.3       1 <0>        -0.3362
     26 C16         3.1744    1.4425   -3.8496 C.3       1 <0>         0.2810
     27 H6          3.8396    2.1804   -3.4012 H         1 <0>         0.1552
     28 O6          2.6988    1.9337   -5.1037 O.3       1 <0>        -0.3680
     29 C17         1.7658    1.0564   -5.7657 C.3       1 <0>         0.0668
     30 C18         3.9306    0.1583   -4.0731 C.ar      1 <0>        -0.1648
     31 C19         4.6337   -0.0344   -5.2476 C.ar      1 <0>        -0.0965
     32 C20         5.3274   -1.2123   -5.4526 C.ar      1 <0>        -0.1252
     33 C21         5.3184   -2.1975   -4.4829 C.ar      1 <0>        -0.1095
     34 C22         4.6161   -2.0044   -3.3080 C.ar      1 <0>        -0.1196
     35 C23         3.9259   -0.8247   -3.1012 C.ar      1 <0>        -0.0868
     36 O7         -2.1743    0.9009   -4.3551 O.3       1 <0>        -0.5714
     37 N1         -2.2269   -1.0292   -2.3198 N.4       1 <0>        -0.6022
     38 H7          2.4834    1.0859   -0.9168 H         1 <0>         0.0694
     39 H8          1.1387    2.1130   -1.4690 H         1 <0>         0.0620
     40 H9          1.6930    2.2045    0.2200 H         1 <0>         0.0621
     41 H10         1.0298    0.4296    1.8536 H         1 <0>         0.0931
     42 H11         0.3697   -1.1059    1.2412 H         1 <0>         0.0713
     43 H12         1.7797   -2.6678    0.0261 H         1 <0>         0.1153
     44 H13         4.0663   -3.5042   -0.3418 H         1 <0>         0.1145
     45 H14         6.0005   -2.0865    0.2167 H         1 <0>         0.1152
     46 H15         5.6482    0.1679    1.1423 H         1 <0>         0.1175
     47 H16         3.3616    1.0075    1.5024 H         1 <0>         0.1201
     48 H17         2.2444    0.1053   -5.9989 H         1 <0>         0.0737
     49 H18         1.4145    1.5264   -6.6842 H         1 <0>         0.1111
     50 H19         4.6407    0.7353   -6.0052 H         1 <0>         0.1275
     51 H20         5.8760   -1.3632   -6.3706 H         1 <0>         0.1236
     52 H21         5.8598   -3.1181   -4.6434 H         1 <0>         0.1219
     53 H22         4.6089   -2.7742   -2.5505 H         1 <0>         0.1232
     54 H23         3.3803   -0.6723   -2.1817 H         1 <0>         0.1354
     55 H24        -2.4798    1.3122   -5.1753 H         1 <0>         0.4077
     56 H25        -2.7045   -0.1426   -2.2565 H         1 <0>         0.4509
     57 H26        -2.8516   -1.7208   -2.7067 H         1 <0>         0.4125
     58 H27        -1.9327   -1.3192   -1.3993 H         1 <0>         0.4458
@<TRIPOS>BOND
     1    1    2 1
     2    1   38 1
     3    1   39 1
     4    1   40 1
     5    2    3 1
     6    2   10 1
     7    2   13 1
     8    3    4 1
     9    3   41 1
    10    3   42 1
    11    4    9 ar
    12    4    5 ar
    13    5    6 ar
    14    5   43 1
    15    6    7 ar
    16    6   44 1
    17    7    8 ar
    18    7   45 1
    19    8    9 ar
    20    8   46 1
    21    9   47 1
    22   10   11 2
    23   10   12 1
    24   13   14 1
    25   14   15 1
    26   14   23 1
    27   14   16 1
    28   16   17 1
    29   16   18 1
    30   16   37 1
    31   18   19 1
    32   18   20 1
    33   18   36 1
    34   20   21 1
    35   21   22 1
    36   21   29 1
    37   21   23 1
    38   23   24 1
    39   23   25 1
    40   25   26 1
    41   26   27 1
    42   26   28 1
    43   26   30 1
    44   28   29 1
    45   29   48 1
    46   29   49 1
    47   30   35 ar
    48   30   31 ar
    49   31   32 ar
    50   31   50 1
    51   32   33 ar
    52   32   51 1
    53   33   34 ar
    54   33   52 1
    55   34   35 ar
    56   34   53 1
    57   35   54 1
    58   36   55 1
    59   37   56 1
    60   37   57 1
    61   37   58 1
@<TRIPOS>MOLECULE
ZINC60880726
   56    58     0     0     0
SMALL
USER_CHARGES

@<TRIPOS>ATOM
      1 C1         -0.0187    1.5258    0.0104 C.3       1 <0>        -0.1241
      2 C2          1.4167    2.0553   -0.0004 C.3       1 <0>        -0.1146
      3 C3          2.1328    1.5619   -1.2592 C.3       1 <0>        -0.1277
      4 C4          2.1536    0.0321   -1.2676 C.3       1 <0>         0.1430
      5 C5          0.7182   -0.4975   -1.2568 C.3       1 <0>        -0.1288
      6 C6          0.0021   -0.0041    0.0020 C.3       1 <0>        -0.1153
      7 N1          2.8393   -0.4404   -2.4730 N.pl3     1 <0>        -0.6809
      8 C7          3.4244   -1.6545   -2.4833 C.2       1 <0>         0.5615
      9 S1          3.3662   -2.6446   -1.0879 S.2       1 <0>        -0.5894
     10 N2          4.0552   -2.0891   -3.5922 N.pl3     1 <0>        -0.4727
     11 N3          4.1028   -1.2789   -4.7341 N.am      1 <0>        -0.5514
     12 C8          4.7336   -1.7135   -5.8430 C.2       1 <0>         0.5208
     13 O1          5.2601   -2.8061   -5.8523 O.2       1 <0>        -0.5150
     14 C9          4.7848   -0.8420   -7.0713 C.3       1 <0>        -0.1258
     15 C10         5.5535   -1.5658   -8.1786 C.3       1 <0>        -0.1240
     16 C11         5.6055   -0.6810   -9.4257 C.3       1 <0>         0.1179
     17 N4          6.3415   -1.3741  -10.4859 N.am      1 <0>        -0.5776
     18 C12         7.6763   -1.2815  -10.6689 C.2       1 <0>         0.5346
     19 O2          8.4654   -0.6348  -10.0140 O.2       1 <0>        -0.4571
     20 C13         7.9758   -2.1543  -11.8609 C.3       1 <0>         0.1150
     21 C14         8.9498   -3.2802  -11.4892 C.3       1 <0>        -0.1213
     22 C15         9.8149   -3.4632  -12.7632 C.3       1 <0>        -0.1226
     23 C16         9.9823   -2.0111  -13.2777 C.3       1 <0>        -0.1235
     24 C17         8.6163   -1.3479  -12.9931 C.3       1 <0>        -0.1179
     25 N5          6.6730   -2.6918  -12.2582 N.am      1 <0>        -0.7155
     26 C18         5.7751   -2.1829  -11.3908 C.2       1 <0>         0.7021
     27 O3          4.5852   -2.4278  -11.4279 O.2       1 <0>        -0.5377
     28 H1         -0.5289    1.8773    0.9072 H         1 <0>         0.0667
     29 H2         -0.5459    1.8868   -0.8726 H         1 <0>         0.0618
     30 H3          1.4019    3.1452    0.0056 H         1 <0>         0.0698
     31 H4          1.9439    1.6943    0.8826 H         1 <0>         0.0698
     32 H5          1.6057    1.9230   -2.1423 H         1 <0>         0.0671
     33 H6          3.1554    1.9392   -1.2670 H         1 <0>         0.0700
     34 H7          2.6808   -0.3290   -0.3846 H         1 <0>         0.1194
     35 H8          0.1910   -0.1364   -2.1398 H         1 <0>         0.0595
     36 H9          0.7330   -1.5874   -1.2628 H         1 <0>         0.0816
     37 H10         0.5293   -0.3651    0.8851 H         1 <0>         0.0703
     38 H11        -1.0205   -0.3814    0.0098 H         1 <0>         0.0677
     39 H12         2.8723    0.1206   -3.2636 H         1 <0>         0.3898
     40 H13         4.4763   -2.9629   -3.5996 H         1 <0>         0.4587
     41 H14         3.6817   -0.4051   -4.7267 H         1 <0>         0.4202
     42 H15         3.7704   -0.6323   -7.4106 H         1 <0>         0.1094
     43 H16         5.2886    0.0944   -6.8317 H         1 <0>         0.1086
     44 H17         6.5679   -1.7755   -7.8393 H         1 <0>         0.0808
     45 H18         5.0497   -2.5022   -8.4182 H         1 <0>         0.0838
     46 H19         4.5910   -0.4713   -9.7649 H         1 <0>         0.1012
     47 H20         6.1093    0.2554   -9.1860 H         1 <0>         0.0985
     48 H21         9.5715   -2.9843  -10.6442 H         1 <0>         0.0905
     49 H22         8.4055   -4.1969  -11.2619 H         1 <0>         0.0856
     50 H23        10.7827   -3.8981  -12.5133 H         1 <0>         0.0795
     51 H24         9.2938   -4.0757  -13.4989 H         1 <0>         0.0733
     52 H25        10.7752   -1.5015  -12.7302 H         1 <0>         0.0761
     53 H26        10.1927   -2.0073  -14.3472 H         1 <0>         0.0771
     54 H27         7.9881   -1.3876  -13.8830 H         1 <0>         0.0875
     55 H28         8.7600   -0.3134  -12.6813 H         1 <0>         0.0820
     56 H29         6.4926   -3.2954  -12.9958 H         1 <0>         0.4416
@<TRIPOS>BOND
     1    1    6 1
     2    1    2 1
     3    1   28 1
     4    1   29 1
     5    2    3 1
     6    2   30 1
     7    2   31 1
     8    3    4 1
     9    3   32 1
    10    3   33 1
    11    4    5 1
    12    4    7 1
    13    4   34 1
    14    5    6 1
    15    5   35 1
    16    5   36 1
    17    6   37 1
    18    6   38 1
    19    7    8 1
    20    7   39 1
    21    8    9 2
    22    8   10 1
    23   10   11 1
    24   10   40 1
    25   11   12 am
    26   11   41 1
    27   12   13 2
    28   12   14 1
    29   14   15 1
    30   14   42 1
    31   14   43 1
    32   15   16 1
    33   15   44 1
    34   15   45 1
    35   16   17 1
    36   16   46 1
    37   16   47 1
    38   17   26 am
    39   17   18 am
    40   18   19 2
    41   18   20 1
    42   20   24 1
    43   20   21 1
    44   20   25 1
    45   21   22 1
    46   21   48 1
    47   21   49 1
    48   22   23 1
    49   22   50 1
    50   22   51 1
    51   23   24 1
    52   23   52 1
    53   23   53 1
    54   24   54 1
    55   24   55 1
    56   25   26 am
    57   25   56 1
    58   26   27 2
@<TRIPOS>MOLECULE
ZINC66673883
   55    56     0     0     0
SMALL
USER_CHARGES

@<TRIPOS>ATOM
      1 C1         -4.0892   -4.6298   -0.7934 C.3       1 <0>        -0.1654
      2 C2         -2.7162   -5.1985   -1.1570 C.3       1 <0>         0.1339
      3 N1         -1.8382   -4.1113   -1.5967 N.am      1 <0>        -0.7451
      4 C3         -0.5706   -4.3776   -1.9694 C.2       1 <0>         0.6995
      5 O1         -0.1558   -5.5201   -1.9406 O.2       1 <0>        -0.5708
      6 N2          0.2371   -3.3774   -2.3740 N.am      1 <0>        -0.7409
      7 C4          1.6453   -3.6486   -2.6730 C.3       1 <0>         0.1777
      8 C5          1.7564   -4.5561   -3.9156 C.3       1 <0>        -0.1181
      9 C6          1.9779   -3.5690   -5.0884 C.3       1 <0>        -0.1242
     10 C7          2.9000   -2.4942   -4.4610 C.3       1 <0>        -0.1226
     11 C8          2.3725   -2.3376   -3.0199 C.3       1 <0>        -0.1198
     12 C9          2.3062   -4.3081   -1.4901 C.2       1 <0>         0.5318
     13 O2          3.1499   -5.1617   -1.6648 O.2       1 <0>        -0.5226
     14 N3          1.9597   -3.9493   -0.2380 N.am      1 <0>        -0.7207
     15 C10         2.5197   -4.6656    0.9107 C.3       1 <0>         0.1779
     16 H1          2.6432   -5.7185    0.6574 H         1 <0>         0.1018
     17 C11         3.8797   -4.0652    1.2724 C.3       1 <0>        -0.1596
     18 C12         1.5856   -4.5380    2.0864 C.ar      1 <0>        -0.0302
     19 C13         0.9455   -3.3379    2.3334 C.ar      1 <0>        -0.1363
     20 C14         0.0886   -3.2209    3.4119 C.ar      1 <0>        -0.0126
     21 C15        -0.1284   -4.3040    4.2429 C.ar      1 <0>        -0.6775
     22 C16         0.5110   -5.5042    3.9953 C.ar      1 <0>        -0.0147
     23 C17         1.3646   -5.6226    2.9144 C.ar      1 <0>        -0.1257
     24 S1         -1.2197   -4.1544    5.6182 S.o2      1 <0>         2.6958
     25 O3         -0.8303   -5.1488    6.5557 O.2       1 <0>        -0.9530
     26 O4         -1.2693   -2.7733    5.9490 O.2       1 <0>        -0.9571
     27 N4         -2.7333   -4.5692    5.0896 N.pl3     1 <0>        -1.1196
     28 C18        -3.0041   -5.9385    4.6448 C.3       1 <0>         0.0818
     29 H2         -3.9799   -3.9029    0.0115 H         1 <0>         0.0612
     30 H3         -4.5235   -4.1426   -1.6664 H         1 <0>         0.0621
     31 H4         -4.7425   -5.4387   -0.4662 H         1 <0>         0.0761
     32 H5         -2.2819   -5.6857   -0.2840 H         1 <0>         0.0647
     33 H6         -2.8255   -5.9254   -1.9618 H         1 <0>         0.0662
     34 H7         -2.1691   -3.1998   -1.6197 H         1 <0>         0.3955
     35 H8         -0.1140   -2.4780   -2.4671 H         1 <0>         0.3988
     36 H9          2.6065   -5.2317   -3.8198 H         1 <0>         0.0941
     37 H10         0.8346   -5.1196   -4.0601 H         1 <0>         0.0805
     38 H11         2.4746   -4.0651   -5.9223 H         1 <0>         0.0740
     39 H12         1.0328   -3.1290   -5.4067 H         1 <0>         0.0672
     40 H13         3.9348   -2.8367   -4.4534 H         1 <0>         0.0740
     41 H14         2.8128   -1.5529   -5.0036 H         1 <0>         0.0740
     42 H15         1.6776   -1.4996   -2.9656 H         1 <0>         0.0822
     43 H16         3.2039   -2.1788   -2.3331 H         1 <0>         0.0797
     44 H17         1.3394   -3.2169   -0.0975 H         1 <0>         0.3964
     45 H18         4.5554   -4.1575    0.4220 H         1 <0>         0.0716
     46 H19         3.7563   -3.0122    1.5257 H         1 <0>         0.0603
     47 H20         4.2965   -4.5980    2.1270 H         1 <0>         0.0704
     48 H21         1.1151   -2.4917    1.6841 H         1 <0>         0.1284
     49 H22        -0.4110   -2.2831    3.6053 H         1 <0>         0.1420
     50 H23         0.3417   -6.3503    4.6448 H         1 <0>         0.1441
     51 H24         1.8613   -6.5614    2.7188 H         1 <0>         0.1371
     52 H25        -3.4405   -3.9055    5.0745 H         1 <0>         0.4200
     53 H26        -2.3554   -6.1822    3.8035 H         1 <0>         0.0598
     54 H27        -2.8123   -6.6313    5.4641 H         1 <0>         0.0706
     55 H28        -4.0462   -6.0207    4.3358 H         1 <0>         0.0852
@<TRIPOS>BOND
     1    1    2 1
     2    1   29 1
     3    1   30 1
     4    1   31 1
     5    2    3 1
     6    2   32 1
     7    2   33 1
     8    3    4 am
     9    3   34 1
    10    4    5 2
    11    4    6 am
    12    6    7 1
    13    6   35 1
    14    7   11 1
    15    7    8 1
    16    7   12 1
    17    8    9 1
    18    8   36 1
    19    8   37 1
    20    9   10 1
    21    9   38 1
    22    9   39 1
    23   10   11 1
    24   10   40 1
    25   10   41 1
    26   11   42 1
    27   11   43 1
    28   12   13 2
    29   12   14 am
    30   14   15 1
    31   14   44 1
    32   15   16 1
    33   15   17 1
    34   15   18 1
    35   17   45 1
    36   17   46 1
    37   17   47 1
    38   18   23 ar
    39   18   19 ar
    40   19   20 ar
    41   19   48 1
    42   20   21 ar
    43   20   49 1
    44   21   22 ar
    45   21   24 1
    46   22   23 ar
    47   22   50 1
    48   23   51 1
    49   24   25 2
    50   24   26 2
    51   24   27 1
    52   27   28 1
    53   27   52 1
    54   28   53 1
    55   28   54 1
    56   28   55 1
@<TRIPOS>MOLECULE
ZINC11898443
   66    69     0     0     0
SMALL
USER_CHARGES
N'-cycloheptyl-N-[(2R)-2-(3,4-dihydro-1H-isoquinolin-2-yl)-2-(1-methylpyrrol-2-yl)ethyl]oxamide
@<TRIPOS>ATOM
      1 C1          3.2830    2.4231    2.3144 C.3       1 <0>         0.0527
      2 N1          4.1627    1.9036    1.2644 N.pl3     1 <0>        -0.4231
      3 C2          5.5086    2.1060    1.1836 C.2       1 <0>         0.0288
      4 C3          5.9638    1.4783    0.0803 C.2       1 <0>        -0.1812
      5 C4          4.8595    0.8609   -0.5395 C.2       1 <0>        -0.1870
      6 C5          3.7715    1.1347    0.2086 C.2       1 <0>        -0.0559
      7 C6          2.3648    0.6756   -0.0766 C.3       1 <0>         0.1088
      8 H1          1.9758    0.1378    0.7879 H         1 <0>         0.1624
      9 C7          1.4797    1.8906   -0.3620 C.3       1 <0>         0.0887
     10 N2          1.9233    2.5381   -1.5990 N.am      1 <0>        -0.7210
     11 C8          1.2315    3.5811   -2.0992 C.2       1 <0>         0.5150
     12 O1          0.2384    3.9806   -1.5275 O.2       1 <0>        -0.4937
     13 C9          1.6875    4.2456   -3.3578 C.2       1 <0>         0.5062
     14 O2          2.6806    3.8461   -3.9294 O.2       1 <0>        -0.5136
     15 N3          0.9958    5.2886   -3.8579 N.am      1 <0>        -0.6905
     16 C10         1.4427    5.9400   -5.0917 C.3       1 <0>         0.1492
     17 C11         2.5614    6.9450   -4.7489 C.3       1 <0>        -0.1242
     18 C12         3.3530    7.2237   -5.9979 C.3       1 <0>        -0.1167
     19 C13         2.8523    8.4737   -6.7466 C.3       1 <0>        -0.1209
     20 C14         1.3151    8.5647   -6.7960 C.3       1 <0>        -0.1238
     21 C15         0.6682    7.2350   -7.0745 C.3       1 <0>        -0.1095
     22 C16         0.3001    6.5778   -5.7286 C.3       1 <0>        -0.1357
     23 C17         0.9997   -0.4415   -1.7384 C.3       1 <0>        -0.0097
     24 C18         1.0829   -1.0515   -3.1378 C.3       1 <0>        -0.1051
     25 C19         2.0214   -2.2308   -3.1298 C.ar      1 <0>        -0.0908
     26 C20         1.9682   -3.1256   -4.1879 C.ar      1 <0>        -0.1036
     27 C21         2.8161   -4.2142   -4.2239 C.ar      1 <0>        -0.0918
     28 C22         3.7229   -4.4138   -3.1994 C.ar      1 <0>        -0.1038
     29 C23         3.7750   -3.5251   -2.1448 C.ar      1 <0>        -0.0914
     30 C24         2.9228   -2.4311   -2.1064 C.ar      1 <0>        -0.1323
     31 C25         3.0142   -1.4917   -0.9326 C.3       1 <0>         0.0449
     32 H2          3.3073    1.7526    3.1734 H         1 <0>         0.0886
     33 H3          3.6235    3.4134    2.6167 H         1 <0>         0.0982
     34 H4          2.2636    2.4897    1.9342 H         1 <0>         0.0863
     35 H5          6.1063    2.6751    1.8803 H         1 <0>         0.1778
     36 H6          6.9869    1.4537   -0.2650 H         1 <0>         0.1511
     37 H7          4.8804    0.2760   -1.4472 H         1 <0>         0.1375
     38 H8          1.5546    2.5969    0.4649 H         1 <0>         0.1152
     39 H9          0.4443    1.5682   -0.4717 H         1 <0>         0.1124
     40 H10         2.7171    2.2188   -2.0559 H         1 <0>         0.4112
     41 H11         0.2019    5.6079   -3.4010 H         1 <0>         0.4131
     42 H12         1.8447    5.1825   -5.7646 H         1 <0>         0.0918
     43 H13         2.1209    7.8714   -4.3802 H         1 <0>         0.0726
     44 H14         3.2157    6.5193   -3.9881 H         1 <0>         0.0659
     45 H15         3.2795    6.3621   -6.6615 H         1 <0>         0.0634
     46 H16         4.3987    7.3699   -5.7274 H         1 <0>         0.0645
     47 H17         3.2360    8.4497   -7.7665 H         1 <0>         0.0630
     48 H18         3.2411    9.3615   -6.2478 H         1 <0>         0.0615
     49 H19         1.0284    9.2672   -7.5786 H         1 <0>         0.0646
     50 H20         0.9544    8.9386   -5.8378 H         1 <0>         0.0619
     51 H21         1.3650    6.5951   -7.6160 H         1 <0>         0.0703
     52 H22        -0.2333    7.3806   -7.6697 H         1 <0>         0.0729
     53 H23        -0.4718    5.8278   -5.9015 H         1 <0>         0.0700
     54 H24        -0.0961    7.3416   -5.0595 H         1 <0>         0.0721
     55 H25         0.4796   -1.1280   -1.0703 H         1 <0>         0.1415
     56 H26         0.4639    0.5067   -1.7833 H         1 <0>         0.1380
     57 H27         1.4502   -0.3014   -3.8383 H         1 <0>         0.1038
     58 H28         0.0909   -1.3805   -3.4472 H         1 <0>         0.1265
     59 H29         1.2599   -2.9696   -4.9881 H         1 <0>         0.1349
     60 H30         2.7711   -4.9084   -5.0500 H         1 <0>         0.1367
     61 H31         4.3893   -5.2633   -3.2246 H         1 <0>         0.1376
     62 H32         4.4833   -3.6822   -1.3448 H         1 <0>         0.1349
     63 H33         4.0630   -1.3152   -0.6940 H         1 <0>         0.1466
     64 H34         2.5206   -1.9431   -0.0720 H         1 <0>         0.1411
     65 N4          2.3789   -0.2058   -1.2659 N.4       1 <0>        -0.3865
     66 H35         2.9159    0.2500   -2.0130 H         1 <0>         0.4276
@<TRIPOS>BOND
     1    1    2 1
     2    1   32 1
     3    1   33 1
     4    1   34 1
     5    2    6 1
     6    2    3 1
     7    3    4 2
     8    3   35 1
     9    4    5 1
    10    4   36 1
    11    5    6 2
    12    5   37 1
    13    6    7 1
    14    7    8 1
    15    7    9 1
    16    7   65 1
    17    9   10 1
    18    9   38 1
    19    9   39 1
    20   10   11 am
    21   10   40 1
    22   11   12 2
    23   11   13 1
    24   13   14 2
    25   13   15 am
    26   15   16 1
    27   15   41 1
    28   16   22 1
    29   16   17 1
    30   16   42 1
    31   17   18 1
    32   17   43 1
    33   17   44 1
    34   18   19 1
    35   18   45 1
    36   18   46 1
    37   19   20 1
    38   19   47 1
    39   19   48 1
    40   20   21 1
    41   20   49 1
    42   20   50 1
    43   21   22 1
    44   21   51 1
    45   21   52 1
    46   22   53 1
    47   22   54 1
    48   23   24 1
    49   23   55 1
    50   23   56 1
    51   23   65 1
    52   24   25 1
    53   24   57 1
    54   24   58 1
    55   25   30 ar
    56   25   26 ar
    57   26   27 ar
    58   26   59 1
    59   27   28 ar
    60   27   60 1
    61   28   29 ar
    62   28   61 1
    63   29   30 ar
    64   29   62 1
    65   30   31 1
    66   31   63 1
    67   31   64 1
    68   31   65 1
    69   65   66 1
@<TRIPOS>MOLECULE
ZINC22796230
   60    62     0     0     0
SMALL
USER_CHARGES
N-(2,5-dimethylphenyl)-N'-[(2S)-2-(4-fluorophenyl)-2-(4-methylpiperazin-1-yl)ethyl]oxamide
@<TRIPOS>ATOM
      1 C1          6.2671    8.4365   -0.7390 C.3       1 <0>        -0.1160
      2 C2          5.1328    9.2482   -1.3095 C.ar      1 <0>        -0.0743
      3 C3          5.3685   10.5251   -1.7860 C.ar      1 <0>        -0.1233
      4 C4          4.3304   11.2737   -2.3094 C.ar      1 <0>        -0.0953
      5 C5          3.0541   10.7481   -2.3584 C.ar      1 <0>        -0.1090
      6 C6          2.8139    9.4659   -1.8812 C.ar      1 <0>         0.1354
      7 C7          3.8584    8.7184   -1.3510 C.ar      1 <0>        -0.1296
      8 N1          1.5239    8.9312   -1.9288 N.am      1 <0>        -0.6432
      9 C8          1.3492    7.5955   -1.9710 C.2       1 <0>         0.5075
     10 O1          2.3090    6.8555   -1.9049 O.2       1 <0>        -0.5171
     11 C9         -0.0255    7.0259   -2.0991 C.2       1 <0>         0.5089
     12 O2         -0.9852    7.7658   -2.1651 O.2       1 <0>        -0.4996
     13 N2         -0.2002    5.6901   -2.1413 N.am      1 <0>        -0.7255
     14 C10        -1.5486    5.1314   -2.2669 C.3       1 <0>         0.0890
     15 C11        -1.4597    3.6100   -2.4022 C.3       1 <0>         0.1244
     16 H1         -0.8370    3.3270   -3.2637 H         1 <0>         0.1090
     17 C12        -2.8445    3.0384   -2.5659 C.ar      1 <0>        -0.0963
     18 C13        -3.6869    2.9454   -1.4737 C.ar      1 <0>        -0.0722
     19 C14        -4.9590    2.4267   -1.6237 C.ar      1 <0>        -0.1534
     20 C15        -5.3855    1.9891   -2.8662 C.ar      1 <0>         0.1139
     21 C16        -4.5388    2.0775   -3.9582 C.ar      1 <0>        -0.1482
     22 C17        -3.2693    2.6022   -3.8070 C.ar      1 <0>        -0.0737
     23 F1         -6.6266    1.4759   -3.0128 F         1 <0>        -0.1323
     24 N3         -0.8368    3.0468   -1.1968 N.3       1 <0>        -0.5297
     25 C18        -1.0521    3.9209   -0.0353 C.3       1 <0>         0.0008
     26 C19        -0.4587    3.2624    1.2124 C.3       1 <0>        -0.0012
     27 N4          0.9746    3.0175    0.9996 N.4       1 <0>        -0.4036
     28 C20         1.1900    2.1438   -0.1622 C.3       1 <0>         0.0008
     29 C21         0.5965    2.8024   -1.4099 C.3       1 <0>         0.0232
     30 C22         1.5970    2.4541    2.2051 C.3       1 <0>        -0.0454
     31 C23         1.9235   11.5646   -2.9295 C.3       1 <0>        -0.1184
     32 H2          7.1979    9.0204   -0.7905 H         1 <0>         0.0697
     33 H3          6.3830    7.5096   -1.3198 H         1 <0>         0.0703
     34 H4          6.0483    8.1871    0.3098 H         1 <0>         0.0686
     35 H5          6.3655   10.9385   -1.7488 H         1 <0>         0.1271
     36 H6          4.5178   12.2707   -2.6799 H         1 <0>         0.1313
     37 H7          3.6743    7.7227   -0.9754 H         1 <0>         0.1473
     38 H8          0.6509    9.6004   -1.9318 H         1 <0>         0.4510
     39 H9          0.6696    5.0194   -2.0814 H         1 <0>         0.4215
     40 H10        -2.1359    5.3863   -1.3724 H         1 <0>         0.0879
     41 H11        -2.0377    5.5508   -3.1584 H         1 <0>         0.0959
     42 H12        -3.3521    3.2821   -0.5036 H         1 <0>         0.1286
     43 H13        -5.6186    2.3586   -0.7713 H         1 <0>         0.1390
     44 H14        -4.8703    1.7362   -4.9278 H         1 <0>         0.1420
     45 H15        -2.6088    2.6713   -4.6586 H         1 <0>         0.1353
     46 H16        -0.5602    4.8893   -0.2091 H         1 <0>         0.0762
     47 H17        -2.1310    4.0785    0.1100 H         1 <0>         0.1288
     48 H18        -0.5933    3.9282    2.0776 H         1 <0>         0.1372
     49 H19        -0.9706    2.3073    1.4016 H         1 <0>         0.1375
     50 H20         2.2689    1.9865   -0.3076 H         1 <0>         0.1403
     51 H21         0.6983    1.1752    0.0112 H         1 <0>         0.1395
     52 H22         0.7303    2.1372   -2.2757 H         1 <0>         0.1327
     53 H23         1.1072    3.7580   -1.5994 H         1 <0>         0.0575
     54 H24         2.6671    2.2810    2.0185 H         1 <0>         0.1260
     55 H25         1.1099    1.5007    2.4578 H         1 <0>         0.1212
     56 H26         1.4799    3.1587    3.0416 H         1 <0>         0.1250
     57 H27         0.9913   10.9825   -2.8837 H         1 <0>         0.0582
     58 H28         2.1466   11.8179   -3.9764 H         1 <0>         0.0791
     59 H29         1.8075   12.4893   -2.3452 H         1 <0>         0.0788
     60 H30         1.4573    3.9838    0.7917 H         1 <0>         0.4408
@<TRIPOS>BOND
     1    1    2 1
     2    1   32 1
     3    1   33 1
     4    1   34 1
     5    2    7 ar
     6    2    3 ar
     7    3    4 ar
     8    3   35 1
     9    4    5 ar
    10    4   36 1
    11    5    6 ar
    12    5   31 1
    13    6    7 ar
    14    6    8 1
    15    7   37 1
    16    8    9 am
    17    8   38 1
    18    9   10 2
    19    9   11 1
    20   11   12 2
    21   11   13 am
    22   13   14 1
    23   13   39 1
    24   14   15 1
    25   14   40 1
    26   14   41 1
    27   15   16 1
    28   15   17 1
    29   15   24 1
    30   17   22 ar
    31   17   18 ar
    32   18   19 ar
    33   18   42 1
    34   19   20 ar
    35   19   43 1
    36   20   21 ar
    37   20   23 1
    38   21   22 ar
    39   21   44 1
    40   22   45 1
    41   24   29 1
    42   24   25 1
    43   25   26 1
    44   25   46 1
    45   25   47 1
    46   26   27 1
    47   26   48 1
    48   26   49 1
    49   27   28 1
    50   27   30 1
    51   27   60 1
    52   28   29 1
    53   28   50 1
    54   28   51 1
    55   29   52 1
    56   29   53 1
    57   30   54 1
    58   30   55 1
    59   30   56 1
    60   31   57 1
    61   31   58 1
    62   31   59 1
@<TRIPOS>MOLECULE
ZINC40569526
   55    57     0     0     0
SMALL
USER_CHARGES

@<TRIPOS>ATOM
      1 C1         -2.7670    1.5140   -0.2365 C.3       1 <0>        -0.1565
      2 C2         -2.7791   -0.0160   -0.2479 C.3       1 <0>        -0.1262
      3 C3         -1.3676   -0.5392    0.0253 C.3       1 <0>        -0.0923
      4 C4         -1.4007   -2.0421    0.1313 C.2       1 <0>         0.1768
      5 C5         -1.5646   -2.6209    1.3401 C.2       1 <0>        -0.1989
      6 C6         -1.5967   -4.0270    1.4449 C.2       1 <0>         0.2267
      7 C7         -1.4590   -4.7851    0.3014 C.2       1 <0>        -0.2581
      8 C8         -1.2908   -4.1407   -0.9309 C.2       1 <0>         0.5459
      9 O1         -1.1675   -4.7993   -1.9518 O.2       1 <0>        -0.5227
     10 N1         -1.2708   -2.7962   -0.9917 N.am      1 <0>        -0.4990
     11 C9         -1.1000   -2.1355   -2.2881 C.3       1 <0>         0.0644
     12 C10         0.3919   -2.0033   -2.6005 C.3       1 <0>        -0.0303
     13 N2          0.5623   -1.4538   -3.9522 N.4       1 <0>        -0.3830
     14 C11         0.0336   -0.0839   -3.9941 C.3       1 <0>        -0.0576
     15 C12         1.9898   -1.4385   -4.2982 C.3       1 <0>        -0.0469
     16 C13        -1.4889   -6.2874    0.3669 C.3       1 <0>         0.1106
     17 H1         -0.6994   -6.6925   -0.2661 H         1 <0>         0.1027
     18 C14        -1.2783   -6.7481    1.7825 C.2       1 <0>        -0.2600
     19 C15        -1.4233   -5.8983    2.8265 C.2       1 <0>         0.4302
     20 O2         -1.7607   -4.6085    2.6520 O.3       1 <0>        -0.2329
     21 N3         -1.2206   -6.3675    4.1003 N.pl3     1 <0>        -0.8248
     22 C16        -0.9180   -8.1116    2.0313 C.1       1 <0>         0.2633
     23 N4         -0.6322   -9.1932    2.2286 N.1       1 <0>        -0.4241
     24 C17        -2.8253   -6.7823   -0.1230 C.ar      1 <0>        -0.0727
     25 C18        -3.9850   -6.3904    0.5193 C.ar      1 <0>        -0.0947
     26 C19        -5.2110   -6.8439    0.0704 C.ar      1 <0>        -0.1101
     27 C20        -5.2775   -7.6903   -1.0220 C.ar      1 <0>        -0.0331
     28 C21        -4.1165   -8.0822   -1.6644 C.ar      1 <0>        -0.1086
     29 C22        -2.8915   -7.6235   -1.2181 C.ar      1 <0>        -0.0856
     30 Cl1        -6.8170   -8.2608   -1.5860 Cl        1 <0>        -0.0657
     31 H2         -3.7726    1.8867   -0.4311 H         1 <0>         0.0664
     32 H3         -2.4308    1.8674    0.7383 H         1 <0>         0.0643
     33 H4         -2.0890    1.8777   -1.0085 H         1 <0>         0.0539
     34 H5         -3.4572   -0.3797    0.5242 H         1 <0>         0.0810
     35 H6         -3.1154   -0.3694   -1.2226 H         1 <0>         0.0638
     36 H7         -0.7074   -0.2470   -0.7914 H         1 <0>         0.0783
     37 H8         -0.9981   -0.1171    0.9599 H         1 <0>         0.1113
     38 H9         -1.6712   -2.0092    2.2238 H         1 <0>         0.1689
     39 H10        -1.5827   -2.7288   -3.0646 H         1 <0>         0.1231
     40 H11        -1.5531   -1.1447   -2.2534 H         1 <0>         0.1179
     41 H12         0.8572   -1.3355   -1.8755 H         1 <0>         0.1362
     42 H13         0.8630   -2.9847   -2.5452 H         1 <0>         0.1420
     43 H14         0.1600    0.3239   -4.9970 H         1 <0>         0.1312
     44 H15        -1.0257   -0.0952   -3.7373 H         1 <0>         0.1228
     45 H16         0.5742    0.5362   -3.2790 H         1 <0>         0.1256
     46 H17         2.3821   -2.4550   -4.2671 H         1 <0>         0.1258
     47 H18         2.1163   -1.0308   -5.3011 H         1 <0>         0.1293
     48 H19         2.5304   -0.8184   -3.5831 H         1 <0>         0.1234
     49 H20        -0.9771   -7.2956    4.2424 H         1 <0>         0.4300
     50 H21        -1.3207   -5.7708    4.8586 H         1 <0>         0.4147
     51 H22        -3.9330   -5.7299    1.3722 H         1 <0>         0.1213
     52 H23        -6.1170   -6.5379    0.5725 H         1 <0>         0.1337
     53 H24        -4.1678   -8.7432   -2.5170 H         1 <0>         0.1348
     54 H25        -1.9855   -7.9255   -1.7224 H         1 <0>         0.1316
     55 H26         0.0619   -2.0278   -4.6142 H         1 <0>         0.4320
@<TRIPOS>BOND
     1    1    2 1
     2    1   31 1
     3    1   32 1
     4    1   33 1
     5    2    3 1
     6    2   34 1
     7    2   35 1
     8    3    4 1
     9    3   36 1
    10    3   37 1
    11    4   10 1
    12    4    5 2
    13    5    6 1
    14    5   38 1
    15    6   20 1
    16    6    7 2
    17    7    8 1
    18    7   16 1
    19    8    9 2
    20    8   10 am
    21   10   11 1
    22   11   12 1
    23   11   39 1
    24   11   40 1
    25   12   13 1
    26   12   41 1
    27   12   42 1
    28   13   14 1
    29   13   15 1
    30   13   55 1
    31   14   43 1
    32   14   44 1
    33   14   45 1
    34   15   46 1
    35   15   47 1
    36   15   48 1
    37   16   17 1
    38   16   18 1
    39   16   24 1
    40   18   19 2
    41   18   22 1
    42   19   20 1
    43   19   21 1
    44   21   49 1
    45   21   50 1
    46   22   23 3
    47   24   29 ar
    48   24   25 ar
    49   25   26 ar
    50   25   51 1
    51   26   27 ar
    52   26   52 1
    53   27   28 ar
    54   27   30 1
    55   28   29 ar
    56   28   53 1
    57   29   54 1
@<TRIPOS>MOLECULE
ZINC59489317
   48    50     0     0     0
SMALL
USER_CHARGES

@<TRIPOS>ATOM
      1 C1         -1.0956    0.4280    2.0887 C.3       1 <0>        -0.1300
      2 C2         -0.9284   -1.0409    1.7965 C.ar      1 <0>        -0.0368
      3 C3         -0.8687   -1.4798    0.4856 C.ar      1 <0>        -0.1297
      4 C4         -0.7158   -2.8228    0.2108 C.ar      1 <0>        -0.0591
      5 C5         -0.6207   -3.7405    1.2596 C.ar      1 <0>        -0.0992
      6 C6         -0.6813   -3.2902    2.5805 C.ar      1 <0>        -0.0658
      7 C7         -0.8296   -1.9437    2.8405 C.ar      1 <0>        -0.1251
      8 C8         -0.4576   -5.1781    0.9737 C.2       1 <0>         0.2453
      9 N1         -0.4020   -5.5931   -0.2545 N.2       1 <0>        -0.3157
     10 N2         -0.2471   -6.9588   -0.5261 N.pl3     1 <0>        -0.5113
     11 C9         -0.1882   -7.3992   -1.8296 C.cat     1 <0>         0.4946
     12 N3         -0.2767   -6.5449   -2.8114 N.pl3     1 <0>        -0.7110
     13 S1          0.0067   -9.1168   -2.1712 S.3       1 <0>         0.1338
     14 C10         0.0298   -9.2040   -3.9829 C.3       1 <0>        -0.1699
     15 H1          0.7924   -8.5389   -4.3882 H         1 <0>         0.1750
     16 C11         0.2679  -10.6533   -4.4536 C.3       1 <0>        -0.1224
     17 C12        -0.9843  -10.9821   -5.2368 C.2       1 <0>         0.5253
     18 O1         -1.2114  -12.0383   -5.7869 O.2       1 <0>        -0.4230
     19 N4         -1.8018   -9.9220   -5.2257 N.am      1 <0>        -0.5091
     20 C13        -1.3308   -8.8623   -4.5499 C.2       1 <0>         0.5329
     21 O2         -1.9023   -7.8019   -4.4133 O.2       1 <0>        -0.4555
     22 C14        -3.0481   -9.9177   -5.8695 C.ar      1 <0>         0.0737
     23 C15        -3.2565   -9.1043   -6.9749 C.ar      1 <0>        -0.0643
     24 C16        -4.4843   -9.1013   -7.6074 C.ar      1 <0>        -0.1410
     25 C17        -5.5071   -9.9092   -7.1396 C.ar      1 <0>         0.1290
     26 C18        -5.3010  -10.7213   -6.0370 C.ar      1 <0>        -0.1403
     27 C19        -4.0728  -10.7311   -5.4054 C.ar      1 <0>        -0.0628
     28 F1         -6.7075   -9.9046   -7.7593 F         1 <0>        -0.1244
     29 C20        -0.3553   -6.1651    2.1079 C.3       1 <0>        -0.1797
     30 H2         -0.1148    0.8977    2.1624 H         1 <0>         0.0826
     31 H3         -1.6631    0.8961    1.2844 H         1 <0>         0.0750
     32 H4         -1.6299    0.5526    3.0306 H         1 <0>         0.0760
     33 H5         -0.9424   -0.7691   -0.3243 H         1 <0>         0.1346
     34 H6         -0.6700   -3.1640   -0.8129 H         1 <0>         0.1311
     35 H7         -0.6088   -3.9942    3.3963 H         1 <0>         0.1366
     36 H8         -0.8729   -1.5937    3.8613 H         1 <0>         0.1377
     37 H9         -0.1813   -7.5941    0.2040 H         1 <0>         0.4234
     38 H10        -0.2352   -6.8551   -3.7295 H         1 <0>         0.4371
     39 H11         1.1474  -10.7087   -5.0952 H         1 <0>         0.1622
     40 H12         0.3725  -11.3219   -3.5990 H         1 <0>         0.1449
     41 H13        -2.4591   -8.4738   -7.3398 H         1 <0>         0.1388
     42 H14        -4.6469   -8.4683   -8.4672 H         1 <0>         0.1517
     43 H15        -6.0998  -11.3507   -5.6735 H         1 <0>         0.1522
     44 H16        -3.9110  -11.3679   -4.5483 H         1 <0>         0.1401
     45 H17        -1.3519   -6.5174    2.3739 H         1 <0>         0.1105
     46 H18         0.2588   -7.0111    1.7992 H         1 <0>         0.0776
     47 H19         0.1011   -5.6806    2.9711 H         1 <0>         0.1117
     48 H20        -0.3840   -5.5993   -2.6233 H         1 <0>         0.4430
@<TRIPOS>BOND
     1    1    2 1
     2    1   30 1
     3    1   31 1
     4    1   32 1
     5    2    7 ar
     6    2    3 ar
     7    3    4 ar
     8    3   33 1
     9    4    5 ar
    10    4   34 1
    11    5    6 ar
    12    5    8 1
    13    6    7 ar
    14    6   35 1
    15    7   36 1
    16    8    9 2
    17    8   29 1
    18    9   10 1
    19   10   11 1
    20   10   37 1
    21   11   12 2
    22   11   13 1
    23   12   38 1
    24   12   48 1
    25   13   14 1
    26   14   15 1
    27   14   20 1
    28   14   16 1
    29   16   17 1
    30   16   39 1
    31   16   40 1
    32   17   18 2
    33   17   19 am
    34   19   20 am
    35   19   22 1
    36   20   21 2
    37   22   27 ar
    38   22   23 ar
    39   23   24 ar
    40   23   41 1
    41   24   25 ar
    42   24   42 1
    43   25   26 ar
    44   25   28 1
    45   26   27 ar
    46   26   43 1
    47   27   44 1
    48   29   45 1
    49   29   46 1
    50   29   47 1
@<TRIPOS>MOLECULE
ZINC66187086
   60    62     0     0     0
SMALL
USER_CHARGES

@<TRIPOS>ATOM
      1 C1         -3.1211   -6.2211   -3.6995 C.3       1 <0>        -0.0503
      2 N1         -3.4223   -5.1354   -2.7569 N.4       1 <0>        -0.3811
      3 C2         -4.8769   -4.9483   -2.6741 C.3       1 <0>        -0.0550
      4 C3         -2.8965   -5.4799   -1.4291 C.3       1 <0>         0.0675
      5 H1         -3.4022   -6.3714   -1.0582 H         1 <0>         0.1510
      6 C4         -3.1416   -4.3166   -0.4660 C.3       1 <0>         0.1241
      7 N2         -2.7130   -4.6997    0.8815 N.am      1 <0>        -0.7448
      8 C5         -2.7336   -3.7930    1.8785 C.2       1 <0>         0.7147
      9 O1         -3.1909   -2.6837    1.6820 O.2       1 <0>        -0.5776
     10 N3         -2.2474   -4.1160    3.0933 N.am      1 <0>        -0.6217
     11 C6         -2.3691   -3.1819    4.2208 C.3       1 <0>         0.1314
     12 C7         -3.0339   -3.9089    5.3939 C.3       1 <0>        -0.1439
     13 C8         -2.2451   -5.1808    5.7137 C.3       1 <0>         0.1447
     14 C9         -2.2592   -6.1109    4.4984 C.3       1 <0>        -0.1466
     15 C10        -1.5910   -5.4113    3.3167 C.3       1 <0>         0.1161
     16 N4         -2.8590   -5.8615    6.8564 N.am      1 <0>        -0.7294
     17 C11        -2.1181   -6.6772    7.6324 C.2       1 <0>         0.5257
     18 O2         -0.9432   -6.8477    7.3847 O.2       1 <0>        -0.5350
     19 C12        -2.7496   -7.3775    8.8080 C.3       1 <0>        -0.1414
     20 C13        -2.8390   -6.5037   10.0702 C.3       1 <0>        -0.1234
     21 C14        -2.4536   -7.7587   10.8710 C.3       1 <0>        -0.1435
     22 C15        -1.7725   -8.2704    9.5907 C.3       1 <0>        -0.1184
     23 C16        -1.4166   -5.7465   -1.5285 C.ar      1 <0>        -0.1564
     24 C17        -0.6240   -4.9504   -2.3341 C.ar      1 <0>        -0.0878
     25 C18         0.7333   -5.1937   -2.4257 C.ar      1 <0>        -0.1375
     26 C19         1.2993   -6.2352   -1.7102 C.ar      1 <0>         0.1357
     27 C20         0.5044   -7.0319   -0.9036 C.ar      1 <0>        -0.1388
     28 C21        -0.8518   -6.7835   -0.8095 C.ar      1 <0>        -0.0620
     29 F1          2.6260   -6.4743   -1.7993 F         1 <0>        -0.1208
     30 H2         -3.5112   -5.9654   -4.6847 H         1 <0>         0.1302
     31 H3         -2.0417   -6.3599   -3.7610 H         1 <0>         0.1251
     32 H4         -3.5869   -7.1433   -3.3524 H         1 <0>         0.1254
     33 H5         -5.3343   -5.8406   -2.2468 H         1 <0>         0.1263
     34 H6         -5.0972   -4.0886   -2.0412 H         1 <0>         0.1285
     35 H7         -5.2786   -4.7767   -3.6727 H         1 <0>         0.1320
     36 H8         -2.5728   -3.4468   -0.7947 H         1 <0>         0.0924
     37 H9         -4.2039   -4.0727   -0.4537 H         1 <0>         0.0925
     38 H10        -2.4143   -5.6059    1.0562 H         1 <0>         0.3998
     39 H11        -1.3787   -2.8374    4.5185 H         1 <0>         0.0766
     40 H12        -2.9810   -2.3297    3.9250 H         1 <0>         0.1031
     41 H13        -3.0432   -3.2573    6.2676 H         1 <0>         0.0897
     42 H14        -4.0568   -4.1731    5.1255 H         1 <0>         0.0745
     43 H15        -1.2158   -4.9180    5.9579 H         1 <0>         0.0924
     44 H16        -1.7171   -7.0265    4.7347 H         1 <0>         0.0857
     45 H17        -3.2894   -6.3543    4.2385 H         1 <0>         0.0699
     46 H18        -1.6896   -6.0296    2.4245 H         1 <0>         0.0729
     47 H19        -0.5357   -5.2527    3.5389 H         1 <0>         0.0805
     48 H20        -3.7987   -5.7252    7.0546 H         1 <0>         0.4021
     49 H21        -3.6855   -7.8741    8.5520 H         1 <0>         0.1128
     50 H22        -2.0887   -5.7139   10.1085 H         1 <0>         0.0850
     51 H23        -3.8457   -6.1431   10.2813 H         1 <0>         0.0762
     52 H24        -1.7579   -7.5600   11.6862 H         1 <0>         0.0752
     53 H25        -3.3092   -8.3591   11.1802 H         1 <0>         0.0852
     54 H26        -1.9182   -9.3362    9.4147 H         1 <0>         0.0727
     55 H27        -0.7306   -7.9637    9.4979 H         1 <0>         0.0951
     56 H28        -1.0657   -4.1383   -2.8924 H         1 <0>         0.1313
     57 H29         1.3523   -4.5718   -3.0554 H         1 <0>         0.1509
     58 H30         0.9447   -7.8448   -0.3453 H         1 <0>         0.1523
     59 H31        -1.4713   -7.4020   -0.1770 H         1 <0>         0.1421
     60 H32        -2.9911   -4.2817   -3.0782 H         1 <0>         0.4258
@<TRIPOS>BOND
     1    1    2 1
     2    1   30 1
     3    1   31 1
     4    1   32 1
     5    2    3 1
     6    2    4 1
     7    2   60 1
     8    3   33 1
     9    3   34 1
    10    3   35 1
    11    4    5 1
    12    4    6 1
    13    4   23 1
    14    6    7 1
    15    6   36 1
    16    6   37 1
    17    7    8 am
    18    7   38 1
    19    8    9 2
    20    8   10 am
    21   10   15 1
    22   10   11 1
    23   11   12 1
    24   11   39 1
    25   11   40 1
    26   12   13 1
    27   12   41 1
    28   12   42 1
    29   13   14 1
    30   13   16 1
    31   13   43 1
    32   14   15 1
    33   14   44 1
    34   14   45 1
    35   15   46 1
    36   15   47 1
    37   16   17 am
    38   16   48 1
    39   17   18 2
    40   17   19 1
    41   19   22 1
    42   19   20 1
    43   19   49 1
    44   20   21 1
    45   20   50 1
    46   20   51 1
    47   21   22 1
    48   21   52 1
    49   21   53 1
    50   22   54 1
    51   22   55 1
    52   23   28 ar
    53   23   24 ar
    54   24   25 ar
    55   24   56 1
    56   25   26 ar
    57   25   57 1
    58   26   27 ar
    59   26   29 1
    60   27   28 ar
    61   27   58 1
    62   28   59 1
@<TRIPOS>MOLECULE
ZINC04986896
   52    55     0     0     0
SMALL
USER_CHARGES
7-(3,4-dimethoxyphenyl)-4-(4-hydroxyphenyl)-1,3,4,6,7,8-hexahydroquinoline-2,5-dione
@<TRIPOS>ATOM
      1 C1          6.3206    6.6509   -0.8972 C.3       1 <0>         0.0253
      2 O1          5.8281    6.3404    0.4078 O.3       1 <0>        -0.3061
      3 C2          4.6822    5.6115    0.4780 C.ar      1 <0>         0.1021
      4 C3          4.0461    5.2043   -0.6837 C.ar      1 <0>        -0.1692
      5 C4          2.8810    4.4637   -0.6106 C.ar      1 <0>        -0.1091
      6 C5          2.3482    4.1274    0.6199 C.ar      1 <0>        -0.0812
      7 C6          2.9749    4.5350    1.7827 C.ar      1 <0>        -0.1631
      8 C7          4.1456    5.2734    1.7166 C.ar      1 <0>         0.1031
      9 O2          4.7662    5.6707    2.8595 O.3       1 <0>        -0.3053
     10 C8          4.1585    5.2873    4.0947 C.3       1 <0>         0.0251
     11 C9          1.0779    3.3200    0.6939 C.3       1 <0>        -0.0317
     12 H1          0.8076    3.1578    1.7373 H         1 <0>         0.0922
     13 C10        -0.0519    4.0661   -0.0195 C.3       1 <0>        -0.0938
     14 C11        -1.3093    3.2337    0.0150 C.2       1 <0>         0.2217
     15 C12        -1.2465    1.8856    0.0183 C.2       1 <0>        -0.2702
     16 C13        -2.5195    1.0725    0.0521 C.3       1 <0>         0.0089
     17 H2         -2.3337    0.0912   -0.3844 H         1 <0>         0.1128
     18 C14        -3.6005    1.7935   -0.7548 C.3       1 <0>        -0.1363
     19 C15        -3.6493    3.2394   -0.3329 C.2       1 <0>         0.5247
     20 O3         -4.7068    3.8324   -0.3265 O.2       1 <0>        -0.5012
     21 N1         -2.5228    3.8730    0.0367 N.am      1 <0>        -0.6609
     22 C16        -2.9812    0.9093    1.4774 C.ar      1 <0>        -0.0869
     23 C17        -3.2734    2.0248    2.2402 C.ar      1 <0>        -0.1079
     24 C18        -3.7022    1.8776    3.5452 C.ar      1 <0>        -0.1417
     25 C19        -3.8286    0.6097    4.0937 C.ar      1 <0>         0.1052
     26 C20        -3.5294   -0.5078    3.3280 C.ar      1 <0>        -0.1417
     27 C21        -3.1064   -0.3555    2.0217 C.ar      1 <0>        -0.0865
     28 O4         -4.2454    0.4625    5.3788 O.3       1 <0>        -0.4994
     29 C22        -0.0144    1.2107    0.0087 C.2       1 <0>         0.4070
     30 O5          0.0021   -0.0041    0.0020 O.2       1 <0>        -0.4621
     31 C23         1.2856    1.9695    0.0004 C.3       1 <0>        -0.1506
     32 H3          6.5279    5.7268   -1.4368 H         1 <0>         0.0560
     33 H4          5.5724    7.2285   -1.4400 H         1 <0>         0.0557
     34 H5          7.2373    7.2343   -0.8104 H         1 <0>         0.1020
     35 H6          4.4603    5.4657   -1.6463 H         1 <0>         0.1374
     36 H7          2.3862    4.1469   -1.5168 H         1 <0>         0.1287
     37 H8          2.5544    4.2744    2.7428 H         1 <0>         0.1365
     38 H9          4.7530    5.6673    4.9255 H         1 <0>         0.1022
     39 H10         3.1520    5.7021    4.1486 H         1 <0>         0.0553
     40 H11         4.1070    4.2000    4.1522 H         1 <0>         0.0559
     41 H12        -0.2322    5.0169    0.4820 H         1 <0>         0.0960
     42 H13         0.2325    4.2505   -1.0555 H         1 <0>         0.1082
     43 H14        -4.5674    1.3265   -0.5676 H         1 <0>         0.1160
     44 H15        -3.3656    1.7317   -1.8174 H         1 <0>         0.1132
     45 H16        -2.5687    4.7985    0.3236 H         1 <0>         0.4151
     46 H17        -3.1706    3.0119    1.8141 H         1 <0>         0.1224
     47 H18        -3.9345    2.7491    4.1393 H         1 <0>         0.1272
     48 H19        -3.6274   -1.4960    3.7526 H         1 <0>         0.1308
     49 H20        -2.8736   -1.2252    1.4251 H         1 <0>         0.1313
     50 H21        -3.5275    0.4553    6.0267 H         1 <0>         0.3911
     51 H22         1.9849    1.4479    0.4891 H         1 <0>         0.0907
     52 H23         1.6070    2.1314   -1.0285 H         1 <0>         0.1053
@<TRIPOS>BOND
     1    1    2 1
     2    1   32 1
     3    1   33 1
     4    1   34 1
     5    2    3 1
     6    3    8 ar
     7    3    4 ar
     8    4    5 ar
     9    4   35 1
    10    5    6 ar
    11    5   36 1
    12    6    7 ar
    13    6   11 1
    14    7    8 ar
    15    7   37 1
    16    8    9 1
    17    9   10 1
    18   10   38 1
    19   10   39 1
    20   10   40 1
    21   11   12 1
    22   11   31 1
    23   11   13 1
    24   13   14 1
    25   13   41 1
    26   13   42 1
    27   14   21 1
    28   14   15 2
    29   15   16 1
    30   15   29 1
    31   16   17 1
    32   16   18 1
    33   16   22 1
    34   18   19 1
    35   18   43 1
    36   18   44 1
    37   19   20 2
    38   19   21 am
    39   21   45 1
    40   22   27 ar
    41   22   23 ar
    42   23   24 ar
    43   23   46 1
    44   24   25 ar
    45   24   47 1
    46   25   26 ar
    47   25   28 1
    48   26   27 ar
    49   26   48 1
    50   27   49 1
    51   28   50 1
    52   29   30 2
    53   29   31 1
    54   31   51 1
    55   31   52 1
@<TRIPOS>MOLECULE
ZINC12846696
   35    36     0     0     0
SMALL
USER_CHARGES
4-chloro-N-(3-chloro-4-methanesulfonamido-phenyl)benzenesulfonamide
@<TRIPOS>ATOM
      1 C1         -0.6355    1.0119   -1.0738 C.3       1 <0>        -0.6677
      2 S1          0.3021    0.6158    0.4277 S.o2      1 <0>         2.6055
      3 O1          0.2313   -0.7779    0.6956 O.2       1 <0>        -0.9444
      4 O2          1.5539    1.2883    0.4147 O.2       1 <0>        -0.9426
      5 N1         -0.5467    1.3265    1.6593 N.pl3     1 <0>        -1.0519
      6 C2         -1.8751    0.9537    1.9006 C.ar      1 <0>         0.1639
      7 C3         -2.2963   -0.3381    1.6158 C.ar      1 <0>        -0.1539
      8 C4         -3.6060   -0.7060    1.8541 C.ar      1 <0>        -0.0848
      9 C5         -4.5022    0.2159    2.3787 C.ar      1 <0>         0.1352
     10 C6         -4.0817    1.5080    2.6643 C.ar      1 <0>        -0.1186
     11 C7         -2.7700    1.8751    2.4305 C.ar      1 <0>        -0.0411
     12 Cl1        -2.2422    3.4886    2.7929 Cl        1 <0>        -0.0450
     13 N2         -5.8296   -0.1575    2.6201 N.pl3     1 <0>        -1.0525
     14 S2         -6.5584    0.2527    4.0494 S.o2      1 <0>         2.6899
     15 O3         -6.3410    1.6452    4.2311 O.2       1 <0>        -0.9414
     16 O4         -7.8595   -0.3178    4.0203 O.2       1 <0>        -0.9414
     17 C8         -5.6779   -0.5666    5.3371 C.ar      1 <0>        -0.6786
     18 C9         -5.9955   -1.8702    5.6701 C.ar      1 <0>        -0.0033
     19 C10        -5.3014   -2.5153    6.6763 C.ar      1 <0>        -0.1311
     20 C11        -4.2962   -1.8525    7.3578 C.ar      1 <0>         0.0218
     21 C12        -3.9827   -0.5460    7.0278 C.ar      1 <0>        -0.1299
     22 C13        -4.6737    0.0962    6.0176 C.ar      1 <0>        -0.0026
     23 Cl2        -3.4284   -2.6599    8.6261 Cl        1 <0>        -0.0489
     24 H1         -1.6431    0.6045   -0.9910 H         1 <0>         0.1324
     25 H2         -0.6898    2.0939   -1.1935 H         1 <0>         0.1350
     26 H3         -0.1370    0.5751   -1.9392 H         1 <0>         0.1380
     27 H4         -0.1239    2.0010    2.2136 H         1 <0>         0.4314
     28 H5         -1.5996   -1.0556    1.2081 H         1 <0>         0.1769
     29 H6         -3.9333   -1.7110    1.6320 H         1 <0>         0.1468
     30 H7         -4.7785    2.2248    3.0730 H         1 <0>         0.1748
     31 H8         -6.3225   -0.6566    1.9501 H         1 <0>         0.4322
     32 H9         -6.7831   -2.3861    5.1411 H         1 <0>         0.1504
     33 H10        -5.5466   -3.5352    6.9335 H         1 <0>         0.1470
     34 H11        -3.1979   -0.0281    7.5592 H         1 <0>         0.1466
     35 H12        -4.4288    1.1160    5.7597 H         1 <0>         0.1517
@<TRIPOS>BOND
     1    1    2 1
     2    1   24 1
     3    1   25 1
     4    1   26 1
     5    2    3 2
     6    2    4 2
     7    2    5 1
     8    5    6 1
     9    5   27 1
    10    6   11 ar
    11    6    7 ar
    12    7    8 ar
    13    7   28 1
    14    8    9 ar
    15    8   29 1
    16    9   10 ar
    17    9   13 1
    18   10   11 ar
    19   10   30 1
    20   11   12 1
    21   13   14 1
    22   13   31 1
    23   14   15 2
    24   14   16 2
    25   14   17 1
    26   17   22 ar
    27   17   18 ar
    28   18   19 ar
    29   18   32 1
    30   19   20 ar
    31   19   33 1
    32   20   21 ar
    33   20   23 1
    34   21   22 ar
    35   21   34 1
    36   22   35 1
@<TRIPOS>MOLECULE
ZINC17905898
   32    33     0     0     0
SMALL
USER_CHARGES

@<TRIPOS>ATOM
      1 C1         -0.0166    1.3750    0.0096 C.ar      1 <0>        -0.1103
      2 C2          1.1704    2.0866    0.0021 C.ar      1 <0>        -0.0875
      3 C3          2.3828    1.4214   -0.0130 C.ar      1 <0>        -0.0902
      4 C4          2.4161    0.0412   -0.0212 C.ar      1 <0>        -0.0613
      5 C5          1.2221   -0.6826   -0.0136 C.ar      1 <0>        -0.1132
      6 C6          0.0021   -0.0041    0.0020 C.ar      1 <0>        -0.0845
      7 C7          1.2496   -2.1604   -0.0228 C.2       1 <0>         0.5473
      8 O1          2.3134   -2.7484   -0.0368 O.2       1 <0>        -0.4917
      9 N1          0.0953   -2.8559   -0.0155 N.am      1 <0>        -0.7250
     10 C8          0.1225   -4.3207   -0.0245 C.3       1 <0>         0.1688
     11 C9         -1.2886   -4.8494   -0.0137 C.ar      1 <0>        -0.1382
     12 C10        -1.8369   -5.3803   -1.1654 C.ar      1 <0>        -0.0185
     13 C11        -3.1313   -5.8655   -1.1562 C.ar      1 <0>        -0.0607
     14 C12        -3.8806   -5.8211    0.0053 C.ar      1 <0>        -0.0285
     15 C13        -3.3371   -5.2914    1.1593 C.ar      1 <0>        -0.1450
     16 C14        -2.0361   -4.8089    1.1541 C.ar      1 <0>         0.1801
     17 O2         -1.4973   -4.2920    2.2896 O.3       1 <0>        -0.4821
     18 N2         -3.7164   -6.4332   -2.3915 N.pl3     1 <0>         0.0329
     19 O3         -3.0624   -6.4722   -3.4075 O.2       1 <0>        -0.1530
     20 O4         -4.8483   -6.8579   -2.3845 O.3       1 <0>        -0.1527
     21 I1          4.2537   -0.9648   -0.0454 I         1 <0>         0.0083
     22 H1         -0.9598    1.9008    0.0259 H         1 <0>         0.1363
     23 H2          1.1498    3.1664    0.0077 H         1 <0>         0.1379
     24 H3          3.3054    1.9828   -0.0188 H         1 <0>         0.1381
     25 H4         -0.9251   -0.5579    0.0082 H         1 <0>         0.1287
     26 H5         -0.7536   -2.3867   -0.0042 H         1 <0>         0.3958
     27 H6          0.6342   -4.6690   -0.9217 H         1 <0>         0.0881
     28 H7          0.6519   -4.6796    0.8581 H         1 <0>         0.0959
     29 H8         -1.2539   -5.4158   -2.0739 H         1 <0>         0.1614
     30 H9         -4.8918   -6.2005    0.0099 H         1 <0>         0.1615
     31 H10        -3.9228   -5.2565    2.0660 H         1 <0>         0.1581
     32 H11        -1.6432   -3.3421    2.3971 H         1 <0>         0.4032
@<TRIPOS>BOND
     1    1    6 ar
     2    1    2 ar
     3    1   22 1
     4    2    3 ar
     5    2   23 1
     6    3    4 ar
     7    3   24 1
     8    4    5 ar
     9    4   21 1
    10    5    6 ar
    11    5    7 1
    12    6   25 1
    13    7    8 2
    14    7    9 am
    15    9   10 1
    16    9   26 1
    17   10   11 1
    18   10   27 1
    19   10   28 1
    20   11   16 ar
    21   11   12 ar
    22   12   13 ar
    23   12   29 1
    24   13   14 ar
    25   13   18 1
    26   14   15 ar
    27   14   30 1
    28   15   16 ar
    29   15   31 1
    30   16   17 1
    31   17   32 1
    32   18   19 2
    33   18   20 1
@<TRIPOS>MOLECULE
ZINC43264681
   46    48     0     0     0
SMALL
USER_CHARGES

@<TRIPOS>ATOM
      1 C1         -1.8365   -0.5587   -0.0330 C.ar      1 <0>        -0.0615
      2 C2         -1.3446    0.7321   -0.0859 C.ar      1 <0>        -0.1387
      3 C3          0.0200    0.9511   -0.1131 C.ar      1 <0>        -0.0181
      4 C4          0.8927   -0.1206   -0.0871 C.ar      1 <0>        -0.6775
      5 C5          0.4008   -1.4114   -0.0333 C.ar      1 <0>        -0.0235
      6 C6         -0.9638   -1.6305   -0.0075 C.ar      1 <0>        -0.1392
      7 S1          2.6321    0.1586   -0.1230 S.o2      1 <0>         2.6916
      8 O1          3.2229   -1.0259   -0.6400 O.2       1 <0>        -0.9529
      9 O2          2.8268    1.4317   -0.7234 O.2       1 <0>        -0.9555
     10 N1          3.1388    0.2936    1.4478 N.pl3     1 <0>        -1.1111
     11 C7          3.0426   -0.8566    2.3499 C.3       1 <0>         0.1497
     12 C8          1.7380   -0.7727    3.1456 C.3       1 <0>        -0.1593
     13 C9          1.6243   -1.9946    4.0626 C.3       1 <0>         0.1118
     14 N2          2.8335   -2.0767    4.8931 N.am      1 <0>        -0.6235
     15 C10         4.1459   -2.0722    4.2326 C.3       1 <0>         0.1303
     16 C11         4.2313   -0.8495    3.3138 C.3       1 <0>        -0.1388
     17 C12         2.7406   -2.1542    6.2355 C.2       1 <0>         0.7094
     18 O3          3.7424   -2.3127    6.9061 O.2       1 <0>        -0.5592
     19 N3          1.5373   -2.0559    6.8345 N.am      1 <0>        -0.6867
     20 C13         1.4516   -2.0167    8.2334 C.ar      1 <0>         0.0867
     21 C14         2.1398   -2.9495    8.9999 C.ar      1 <0>         0.1412
     22 C15         2.0532   -2.9073   10.3800 C.ar      1 <0>        -0.1524
     23 C16         1.2829   -1.9388   10.9968 C.ar      1 <0>        -0.0670
     24 C17         0.5968   -1.0090   10.2376 C.ar      1 <0>        -0.1515
     25 C18         0.6830   -1.0413    8.8572 C.ar      1 <0>         0.1107
     26 F1          0.0168   -0.1289    8.1164 F         1 <0>        -0.1285
     27 F2          2.8920   -3.8967    8.3981 F         1 <0>        -0.1119
     28 H1         -2.9026   -0.7297   -0.0072 H         1 <0>         0.1319
     29 H2         -2.0264    1.5694   -0.1062 H         1 <0>         0.1339
     30 H3          0.4043    1.9596   -0.1551 H         1 <0>         0.1401
     31 H4          1.0827   -2.2487   -0.0134 H         1 <0>         0.1397
     32 H5         -1.3481   -2.6389    0.0341 H         1 <0>         0.1341
     33 H6          3.4994    1.1343    1.7705 H         1 <0>         0.4210
     34 H7          3.0535   -1.7774    1.7668 H         1 <0>         0.0979
     35 H8          1.7371    0.1356    3.7482 H         1 <0>         0.0807
     36 H9          0.8928   -0.7543    2.4576 H         1 <0>         0.0843
     37 H10         0.7479   -1.8912    4.7023 H         1 <0>         0.0798
     38 H11         1.5339   -2.8975    3.4586 H         1 <0>         0.0804
     39 H12         4.9333   -2.0200    4.9846 H         1 <0>         0.1035
     40 H13         4.2611   -2.9815    3.6426 H         1 <0>         0.0762
     41 H14         5.1607   -0.8856    2.7455 H         1 <0>         0.0917
     42 H15         4.2070    0.0596    3.9147 H         1 <0>         0.0776
     43 H16         0.7305   -2.0124    6.2978 H         1 <0>         0.4091
     44 H17         2.5877   -3.6319   10.9764 H         1 <0>         0.1477
     45 H18         1.2166   -1.9088   12.0744 H         1 <0>         0.1476
     46 H19        -0.0042   -0.2542   10.7229 H         1 <0>         0.1479
@<TRIPOS>BOND
     1    1    6 ar
     2    1    2 ar
     3    1   28 1
     4    2    3 ar
     5    2   29 1
     6    3    4 ar
     7    3   30 1
     8    4    5 ar
     9    4    7 1
    10    5    6 ar
    11    5   31 1
    12    6   32 1
    13    7    8 2
    14    7    9 2
    15    7   10 1
    16   10   11 1
    17   10   33 1
    18   11   16 1
    19   11   12 1
    20   11   34 1
    21   12   13 1
    22   12   35 1
    23   12   36 1
    24   13   14 1
    25   13   37 1
    26   13   38 1
    27   14   15 1
    28   14   17 am
    29   15   16 1
    30   15   39 1
    31   15   40 1
    32   16   41 1
    33   16   42 1
    34   17   18 2
    35   17   19 am
    36   19   20 1
    37   19   43 1
    38   20   25 ar
    39   20   21 ar
    40   21   22 ar
    41   21   27 1
    42   22   23 ar
    43   22   44 1
    44   23   24 ar
    45   23   45 1
    46   24   25 ar
    47   24   46 1
    48   25   26 1
@<TRIPOS>MOLECULE
ZINC62260727
   44    46     0     0     0
SMALL
USER_CHARGES

@<TRIPOS>ATOM
      1 C1         -0.0187    1.5258    0.0104 C.3       1 <0>        -0.1535
      2 C2          0.0021   -0.0041    0.0020 C.3       1 <0>        -0.1313
      3 C3          0.7182   -0.4975   -1.2568 C.3       1 <0>         0.1154
      4 N1          0.7381   -1.9623   -1.2648 N.pl3     1 <0>        -1.1281
      5 S1          1.1072   -2.7777   -2.6581 S.o2      1 <0>         2.7850
      6 O1          1.0701   -4.1623   -2.3403 O.2       1 <0>        -0.9752
      7 O2          0.3060   -2.2101   -3.6853 O.2       1 <0>        -0.9722
      8 N2          2.6802   -2.4201   -3.0326 N.pl3     1 <0>        -1.0086
      9 C4          3.0038   -1.2640   -3.8796 C.3       1 <0>         0.1185
     10 C5          3.8780   -1.7363   -5.0456 C.3       1 <0>        -0.1245
     11 C6          5.1006   -2.4740   -4.4951 C.3       1 <0>        -0.0103
     12 C7          4.6442   -3.7026   -3.7050 C.3       1 <0>        -0.1335
     13 C8          3.7790   -3.2494   -2.5192 C.3       1 <0>         0.1229
     14 C9          5.9804   -2.9104   -5.6381 C.2       1 <0>         0.3077
     15 N3          5.8163   -4.0551   -6.3548 N.pl3     1 <0>        -0.5910
     16 H1          5.1246   -4.7222   -6.2225 H         1 <0>         0.4270
     17 C10         6.8169   -4.0910   -7.3064 C.ar      1 <0>         0.0593
     18 C11         7.1648   -4.9876   -8.3073 C.ar      1 <0>        -0.0865
     19 C12         8.2526   -4.7272   -9.1141 C.ar      1 <0>        -0.0160
     20 C13         9.0039   -3.5721   -8.9313 C.ar      1 <0>        -0.0387
     21 C14         8.6725   -2.6724   -7.9434 C.ar      1 <0>        -0.0408
     22 C15         7.5727   -2.9219   -7.1179 C.ar      1 <0>         0.0644
     23 N4          7.0041   -2.2448   -6.0870 N.2       1 <0>        -0.4816
     24 Cl1        10.3705   -3.2620   -9.9560 Cl        1 <0>        -0.0397
     25 Cl2         8.6866   -5.8494  -10.3655 Cl        1 <0>        -0.0376
     26 H2          1.0039    1.9031    0.0027 H         1 <0>         0.0581
     27 H3         -0.5459    1.8868   -0.8726 H         1 <0>         0.0591
     28 H4         -0.5289    1.8773    0.9072 H         1 <0>         0.0612
     29 H5          0.5293   -0.3651    0.8851 H         1 <0>         0.0698
     30 H6         -1.0205   -0.3814    0.0098 H         1 <0>         0.0712
     31 H7          0.1910   -0.1364   -2.1398 H         1 <0>         0.0785
     32 H8          1.7408   -0.1202   -1.2645 H         1 <0>         0.0655
     33 H9          0.5350   -2.4546   -0.4541 H         1 <0>         0.4175
     34 H10         2.0839   -0.8258   -4.2667 H         1 <0>         0.0995
     35 H11         3.5460   -0.5220   -3.2935 H         1 <0>         0.0779
     36 H12         3.3032   -2.4091   -5.6820 H         1 <0>         0.0722
     37 H13         4.2046   -0.8745   -5.6277 H         1 <0>         0.0897
     38 H14         5.6615   -1.8082   -3.8391 H         1 <0>         0.1165
     39 H15         4.0622   -4.3569   -4.3540 H         1 <0>         0.0708
     40 H16         5.5162   -4.2405   -3.3330 H         1 <0>         0.0867
     41 H17         4.3832   -2.6660   -1.8244 H         1 <0>         0.0783
     42 H18         3.3709   -4.1215   -2.0085 H         1 <0>         0.0996
     43 H19         6.5852   -5.8872   -8.4537 H         1 <0>         0.1446
     44 H20         9.2607   -1.7771   -7.8065 H         1 <0>         0.1518
@<TRIPOS>BOND
     1    1    2 1
     2    1   26 1
     3    1   27 1
     4    1   28 1
     5    2    3 1
     6    2   29 1
     7    2   30 1
     8    3    4 1
     9    3   31 1
    10    3   32 1
    11    4    5 1
    12    4   33 1
    13    5    6 2
    14    5    7 2
    15    5    8 1
    16    8   13 1
    17    8    9 1
    18    9   10 1
    19    9   34 1
    20    9   35 1
    21   10   11 1
    22   10   36 1
    23   10   37 1
    24   11   12 1
    25   11   14 1
    26   11   38 1
    27   12   13 1
    28   12   39 1
    29   12   40 1
    30   13   41 1
    31   13   42 1
    32   14   23 2
    33   14   15 1
    34   15   16 1
    35   15   17 1
    36   17   22 ar
    37   17   18 ar
    38   18   19 ar
    39   18   43 1
    40   19   20 ar
    41   19   25 1
    42   20   21 ar
    43   20   24 1
    44   21   22 ar
    45   21   44 1
    46   22   23 1
@<TRIPOS>MOLECULE
ZINC12710920
   60    64     0     0     0
SMALL
USER_CHARGES
(2S)-1-[1-(2-phenyl-6,7-dihydro-5H-cyclopenta[e]pyrimidin-4-yl)piperidine-4-carbonyl]pyrrolidine-2-carboxamide
@<TRIPOS>ATOM
      1 C1         -0.0340    0.0106   -0.0078 C.ar      1 <0>        -0.0984
      2 C2         -0.0478    1.3938    0.0002 C.ar      1 <0>        -0.1312
      3 C3          1.1388    2.0983   -0.0051 C.ar      1 <0>        -0.0707
      4 C4          2.3527    1.4136   -0.0187 C.ar      1 <0>        -0.0484
      5 C5          2.3605    0.0199   -0.0262 C.ar      1 <0>        -0.0697
      6 C6          1.1677   -0.6743   -0.0207 C.ar      1 <0>        -0.1312
      7 C7          3.6313    2.1652   -0.0240 C.ar      1 <0>         0.3892
      8 N1          4.7745    1.4945   -0.0360 N.ar      1 <0>        -0.5261
      9 C8          5.9377    2.1300   -0.0412 C.ar      1 <0>         0.1858
     10 C9          5.9497    3.5105   -0.0337 C.ar      1 <0>        -0.2271
     11 C10         4.7301    4.1913   -0.0213 C.ar      1 <0>         0.3749
     12 N2          3.6013    3.4905   -0.0221 N.ar      1 <0>        -0.5466
     13 N3          4.6980    5.5765   -0.0132 N.pl3     1 <0>        -0.4683
     14 C11         5.4484    6.1270   -1.1491 C.3       1 <0>         0.0568
     15 C12         5.5145    7.6511   -1.0279 C.3       1 <0>        -0.1046
     16 C13         4.0926    8.2188   -1.0084 C.3       1 <0>        -0.1020
     17 C14         3.3176    7.5931    0.1546 C.3       1 <0>        -0.1027
     18 C15         3.3152    6.0707   -0.0008 C.3       1 <0>         0.0670
     19 C16         4.1497    9.7140   -0.8290 C.2       1 <0>         0.5437
     20 O1          4.0563   10.1957    0.2801 O.2       1 <0>        -0.5161
     21 N4          4.3046   10.5159   -1.9011 N.am      1 <0>        -0.6061
     22 C17         4.3307   10.0746   -3.3075 C.3       1 <0>         0.0964
     23 C18         5.1198   11.1785   -4.0549 C.3       1 <0>        -0.1310
     24 C19         4.6399   12.4572   -3.3187 C.3       1 <0>        -0.1247
     25 C20         4.4691   11.9764   -1.8621 C.3       1 <0>         0.1178
     26 H1          5.3553   12.2342   -1.2823 H         1 <0>         0.1024
     27 C21         3.2487   12.6134   -1.2490 C.2       1 <0>         0.5084
     28 O2          2.3251   11.9208   -0.8774 O.2       1 <0>        -0.5193
     29 N5          3.1837   13.9528   -1.1136 N.am      1 <0>        -0.8559
     30 C22         7.3744    4.0133   -0.0415 C.3       1 <0>        -0.0675
     31 C23         8.2320    2.8011    0.3821 C.3       1 <0>        -0.1184
     32 C24         7.3564    1.6068   -0.0550 C.3       1 <0>        -0.0729
     33 H2         -0.9651   -0.5367   -0.0035 H         1 <0>         0.1255
     34 H3         -0.9891    1.9233    0.0062 H         1 <0>         0.1277
     35 H4          1.1269    3.1783    0.0008 H         1 <0>         0.1342
     36 H5          3.2983   -0.5158   -0.0360 H         1 <0>         0.1364
     37 H6          1.1726   -1.7542   -0.0269 H         1 <0>         0.1281
     38 H7          6.4590    5.7185   -1.1489 H         1 <0>         0.0969
     39 H8          4.9483    5.8579   -2.0794 H         1 <0>         0.0506
     40 H9          6.0582    8.0606   -1.8793 H         1 <0>         0.0802
     41 H10         6.0270    7.9215   -0.1047 H         1 <0>         0.0848
     42 H11         3.5931    7.9825   -1.9479 H         1 <0>         0.0898
     43 H12         2.2917    7.9612    0.1481 H         1 <0>         0.0796
     44 H13         3.7953    7.8620    1.0967 H         1 <0>         0.0866
     45 H14         2.8251    5.8019   -0.9366 H         1 <0>         0.0537
     46 H15         2.7764    5.6214    0.8335 H         1 <0>         0.0934
     47 H16         4.8433    9.1166   -3.3950 H         1 <0>         0.0829
     48 H17         3.3169   10.0007   -3.7008 H         1 <0>         0.0720
     49 H18         6.1943   11.0392   -3.9359 H         1 <0>         0.0830
     50 H19         4.8463   11.2082   -5.1095 H         1 <0>         0.0911
     51 H20         5.3917   13.2438   -3.3819 H         1 <0>         0.0941
     52 H21         3.6885   12.8015   -3.7242 H         1 <0>         0.0825
     53 H22         3.9225   14.5067   -1.4108 H         1 <0>         0.4003
     54 H23         2.3982   14.3628   -0.7190 H         1 <0>         0.4033
     55 H24         7.4920    4.8281    0.6730 H         1 <0>         0.0843
     56 H25         7.6549    4.3443   -1.0414 H         1 <0>         0.0819
     57 H26         8.3866    2.7938    1.4611 H         1 <0>         0.0785
     58 H27         9.1850    2.7969   -0.1470 H         1 <0>         0.0871
     59 H28         7.4623    0.7822    0.6500 H         1 <0>         0.0917
     60 H29         7.6308    1.2843   -1.0594 H         1 <0>         0.0963
@<TRIPOS>BOND
     1    1    6 ar
     2    1    2 ar
     3    1   33 1
     4    2    3 ar
     5    2   34 1
     6    3    4 ar
     7    3   35 1
     8    4    5 ar
     9    4    7 1
    10    5    6 ar
    11    5   36 1
    12    6   37 1
    13    7   12 ar
    14    7    8 ar
    15    8    9 ar
    16    9   32 1
    17    9   10 ar
    18   10   11 ar
    19   10   30 1
    20   11   12 ar
    21   11   13 1
    22   13   18 1
    23   13   14 1
    24   14   15 1
    25   14   38 1
    26   14   39 1
    27   15   16 1
    28   15   40 1
    29   15   41 1
    30   16   17 1
    31   16   19 1
    32   16   42 1
    33   17   18 1
    34   17   43 1
    35   17   44 1
    36   18   45 1
    37   18   46 1
    38   19   20 2
    39   19   21 am
    40   21   25 1
    41   21   22 1
    42   22   23 1
    43   22   47 1
    44   22   48 1
    45   23   24 1
    46   23   49 1
    47   23   50 1
    48   24   25 1
    49   24   51 1
    50   24   52 1
    51   25   26 1
    52   25   27 1
    53   27   28 2
    54   27   29 am
    55   29   53 1
    56   29   54 1
    57   30   31 1
    58   30   55 1
    59   30   56 1
    60   31   32 1
    61   31   57 1
    62   31   58 1
    63   32   59 1
    64   32   60 1
@<TRIPOS>MOLECULE
ZINC36879693
   39    41     0     0     0
SMALL
USER_CHARGES

@<TRIPOS>ATOM
      1 C1         -0.0187    1.5258    0.0104 C.3       1 <0>        -0.1605
      2 C2          0.0021   -0.0041    0.0020 C.3       1 <0>         0.1733
      3 C3          0.8145   -0.5200   -1.1691 C.2       1 <0>         0.5373
      4 O1          0.5947   -0.3417   -2.3479 O.2       1 <0>        -0.4318
      5 N1          1.8325   -1.2174   -0.6272 N.am      1 <0>        -0.5636
      6 C4          1.7766   -1.2139    0.7095 C.2       1 <0>         0.7122
      7 O2          2.5860   -1.7761    1.4210 O.2       1 <0>        -0.5302
      8 N2          0.7243   -0.5191    1.1781 N.am      1 <0>        -0.7145
      9 C5          2.8713   -1.8963   -1.4058 C.3       1 <0>         0.1080
     10 C6          4.0198   -0.9501   -1.6436 C.2       1 <0>         0.4982
     11 O3          3.9750    0.1802   -1.2058 O.2       1 <0>        -0.4807
     12 N3          5.0968   -1.3597   -2.3427 N.am      1 <0>        -0.6160
     13 C7          6.1546   -0.4882   -2.5618 C.2       1 <0>         0.0568
     14 C8          7.3295   -0.7316   -3.2564 C.2       1 <0>        -0.1442
     15 C9          8.2724    0.3600   -3.3349 C.2       1 <0>        -0.0903
     16 C10         7.9027    1.4998   -2.7206 C.2       1 <0>        -0.2439
     17 S1          6.3016    1.1038   -2.0528 S.3       1 <0>         0.3060
     18 C11         7.5949   -2.0005   -3.8646 C.1       1 <0>         0.2681
     19 N4          7.8055   -3.0071   -4.3471 N.1       1 <0>        -0.4231
     20 C12        -1.4013   -0.5515   -0.0400 C.ar      1 <0>        -0.0925
     21 C13        -1.8628   -1.3499    0.9900 C.ar      1 <0>        -0.0752
     22 C14        -3.1496   -1.8524    0.9522 C.ar      1 <0>        -0.1031
     23 C15        -3.9773   -1.5561   -0.1166 C.ar      1 <0>        -0.0145
     24 C16        -3.5163   -0.7570   -1.1471 C.ar      1 <0>        -0.0999
     25 C17        -2.2295   -0.2504   -1.1063 C.ar      1 <0>        -0.0088
     26 Cl1        -1.6521    0.7576   -2.3964 Cl        1 <0>        -0.0177
     27 Cl2        -5.5935   -2.1878   -0.1641 Cl        1 <0>        -0.0467
     28 H1          1.0039    1.9031    0.0027 H         1 <0>         0.0806
     29 H2         -0.5459    1.8868   -0.8726 H         1 <0>         0.0967
     30 H3         -0.5289    1.8773    0.9072 H         1 <0>         0.0847
     31 H4          0.4875   -0.3833    2.1089 H         1 <0>         0.4441
     32 H5          3.2264   -2.7678   -0.8558 H         1 <0>         0.1404
     33 H6          2.4584   -2.2143   -2.3631 H         1 <0>         0.1383
     34 H7          5.1326   -2.2636   -2.6928 H         1 <0>         0.4241
     35 H8          9.2151    0.2675   -3.8536 H         1 <0>         0.1498
     36 H9          8.4456    2.4310   -2.6525 H         1 <0>         0.1948
     37 H10        -1.2172   -1.5814    1.8243 H         1 <0>         0.1454
     38 H11        -3.5093   -2.4766    1.7568 H         1 <0>         0.1471
     39 H12        -4.1619   -0.5256   -1.9814 H         1 <0>         0.1514
@<TRIPOS>BOND
     1    1    2 1
     2    1   28 1
     3    1   29 1
     4    1   30 1
     5    2    8 1
     6    2    3 1
     7    2   20 1
     8    3    4 2
     9    3    5 am
    10    5    6 am
    11    5    9 1
    12    6    7 2
    13    6    8 am
    14    8   31 1
    15    9   10 1
    16    9   32 1
    17    9   33 1
    18   10   11 2
    19   10   12 am
    20   12   13 1
    21   12   34 1
    22   13   17 1
    23   13   14 2
    24   14   15 1
    25   14   18 1
    26   15   16 2
    27   15   35 1
    28   16   17 1
    29   16   36 1
    30   18   19 3
    31   20   25 ar
    32   20   21 ar
    33   21   22 ar
    34   21   37 1
    35   22   23 ar
    36   22   38 1
    37   23   24 ar
    38   23   27 1
    39   24   25 ar
    40   24   39 1
    41   25   26 1
@<TRIPOS>MOLECULE
ZINC48538255
   59    60     0     0     0
SMALL
USER_CHARGES

@<TRIPOS>ATOM
      1 C1         -0.0491    1.5506   -0.0037 C.3       1 <0>        -0.1452
      2 C2         -0.0257    0.0207   -0.0036 C.3       1 <0>         0.0750
      3 H1          0.4901   -0.3355   -0.8953 H         1 <0>         0.0589
      4 C3         -1.4625   -0.5133    0.0045 C.3       1 <0>         0.1159
      5 N1         -1.4145   -1.9719    0.1933 N.pl3     1 <0>        -0.6758
      6 C4         -0.6092   -2.4991    1.3064 C.3       1 <0>         0.1156
      7 C5          0.7862   -1.8682    1.2349 C.3       1 <0>         0.0751
      8 H2          1.3052   -2.2321    0.3481 H         1 <0>         0.0587
      9 O1          0.6577   -0.4463    1.1620 O.3       1 <0>        -0.3755
     10 C6          1.5830   -2.2470    2.4849 C.3       1 <0>        -0.1452
     11 C7         -2.1143   -2.8332   -0.6616 C.ar      1 <0>         0.1200
     12 C8         -1.5005   -3.3264   -1.8046 C.ar      1 <0>        -0.0773
     13 C9         -2.1906   -4.1752   -2.6479 C.ar      1 <0>        -0.1500
     14 C10        -3.4984   -4.5358   -2.3532 C.ar      1 <0>         0.1905
     15 C11        -4.1140   -4.0435   -1.2103 C.ar      1 <0>        -0.1513
     16 C12        -3.4221   -3.1988   -0.3624 C.ar      1 <0>         0.1136
     17 F1         -4.0183   -2.7240    0.7532 F         1 <0>        -0.1302
     18 N2         -4.1979   -5.3970   -3.2101 N.am      1 <0>        -0.6822
     19 C13        -5.0739   -6.2870   -2.7031 C.2       1 <0>         0.7139
     20 O2         -5.3199   -6.2872   -1.5123 O.2       1 <0>        -0.5661
     21 N3         -5.6772   -7.1768   -3.5159 N.am      1 <0>        -0.6095
     22 C14        -5.3808   -7.1766   -4.9506 C.3       1 <0>         0.0796
     23 C15        -6.6294   -8.1442   -2.9648 C.3       1 <0>         0.1123
     24 C16        -8.0167   -7.5565   -2.9949 C.2       1 <0>         0.4981
     25 O3         -8.1928   -6.4396   -3.4335 O.2       1 <0>        -0.5233
     26 N4         -9.0618   -8.2722   -2.5343 N.am      1 <0>        -0.7239
     27 C17       -10.4105   -7.7009   -2.5636 C.3       1 <0>         0.1692
     28 C18       -10.7945   -7.3735   -4.0080 C.3       1 <0>        -0.1627
     29 C19       -11.4049   -8.7112   -1.9880 C.3       1 <0>        -0.1563
     30 C20       -10.4407   -6.4213   -1.7253 C.3       1 <0>        -0.1641
     31 H3          0.9729    1.9296   -0.0076 H         1 <0>         0.0659
     32 H4         -0.5718    1.9059   -0.8917 H         1 <0>         0.0723
     33 H5         -0.5650    1.9061    0.8883 H         1 <0>         0.0653
     34 H6         -2.0197   -0.0555    0.8219 H         1 <0>         0.0603
     35 H7         -1.9456   -0.2818   -0.9447 H         1 <0>         0.0782
     36 H8         -1.0804   -2.2412    2.2548 H         1 <0>         0.0603
     37 H9         -0.5271   -3.5825    1.2193 H         1 <0>         0.0782
     38 H10         1.6774   -3.3315    2.5408 H         1 <0>         0.0724
     39 H11         2.5749   -1.7981    2.4333 H         1 <0>         0.0659
     40 H12         1.0643   -1.8813    3.3711 H         1 <0>         0.0653
     41 H13        -0.4833   -3.0461   -2.0349 H         1 <0>         0.1351
     42 H14        -1.7125   -4.5583   -3.5373 H         1 <0>         0.1335
     43 H15        -5.1316   -4.3236   -0.9815 H         1 <0>         0.1536
     44 H16        -4.0515   -5.3524   -4.1679 H         1 <0>         0.4102
     45 H17        -4.5400   -7.8416   -5.1480 H         1 <0>         0.0637
     46 H18        -6.2549   -7.5226   -5.5023 H         1 <0>         0.0790
     47 H19        -5.1270   -6.1655   -5.2691 H         1 <0>         0.0687
     48 H20        -6.6079   -9.0558   -3.5620 H         1 <0>         0.1113
     49 H21        -6.3558   -8.3775   -1.9358 H         1 <0>         0.1171
     50 H22        -8.9210   -9.1655   -2.1836 H         1 <0>         0.3997
     51 H23       -10.7731   -8.2850   -4.6052 H         1 <0>         0.0535
     52 H24       -11.7980   -6.9484   -4.0297 H         1 <0>         0.0632
     53 H25       -10.0861   -6.6537   -4.4180 H         1 <0>         0.0764
     54 H26       -11.1314   -8.9444   -0.9590 H         1 <0>         0.0629
     55 H27       -12.4084   -8.2861   -2.0097 H         1 <0>         0.0743
     56 H28       -11.3835   -9.6228   -2.5852 H         1 <0>         0.0623
     57 H29        -9.7322   -5.7015   -2.1354 H         1 <0>         0.0767
     58 H30       -11.4441   -5.9962   -1.7470 H         1 <0>         0.0627
     59 H31       -10.1671   -6.6545   -0.6963 H         1 <0>         0.0545
@<TRIPOS>BOND
     1    1    2 1
     2    1   31 1
     3    1   32 1
     4    1   33 1
     5    2    3 1
     6    2    9 1
     7    2    4 1
     8    4    5 1
     9    4   34 1
    10    4   35 1
    11    5    6 1
    12    5   11 1
    13    6    7 1
    14    6   36 1
    15    6   37 1
    16    7    8 1
    17    7    9 1
    18    7   10 1
    19   10   38 1
    20   10   39 1
    21   10   40 1
    22   11   16 ar
    23   11   12 ar
    24   12   13 ar
    25   12   41 1
    26   13   14 ar
    27   13   42 1
    28   14   15 ar
    29   14   18 1
    30   15   16 ar
    31   15   43 1
    32   16   17 1
    33   18   19 am
    34   18   44 1
    35   19   20 2
    36   19   21 am
    37   21   22 1
    38   21   23 1
    39   22   45 1
    40   22   46 1
    41   22   47 1
    42   23   24 1
    43   23   48 1
    44   23   49 1
    45   24   25 2
    46   24   26 am
    47   26   27 1
    48   26   50 1
    49   27   28 1
    50   27   29 1
    51   27   30 1
    52   28   51 1
    53   28   52 1
    54   28   53 1
    55   29   54 1
    56   29   55 1
    57   29   56 1
    58   30   57 1
    59   30   58 1
    60   30   59 1
@<TRIPOS>MOLECULE
ZINC54811911
   48    50     0     0     0
SMALL
USER_CHARGES

@<TRIPOS>ATOM
      1 C1         -1.3515    0.3159   -0.6874 C.3       1 <0>        -0.1314
      2 C2         -0.0506   -0.0076    0.0010 C.2       1 <0>         0.0288
      3 C3          1.1341    0.4134   -0.5128 C.2       1 <0>        -0.2419
      4 C4          2.3381    0.0976    0.1503 C.2       1 <0>         0.5103
      5 O1          3.3934    0.4817   -0.3210 O.2       1 <0>        -0.4519
      6 O2          2.3507   -0.6148    1.2876 O.3       1 <0>        -0.2663
      7 C5          1.2084   -1.0635    1.8511 C.ar      1 <0>         0.1690
      8 C6         -0.0299   -0.7795    1.2457 C.ar      1 <0>        -0.1344
      9 C7         -1.2163   -1.2378    1.8290 C.ar      1 <0>        -0.0342
     10 C8         -1.1684   -1.9560    2.9898 C.ar      1 <0>        -0.0644
     11 C9          0.0550   -2.2348    3.5971 C.ar      1 <0>         0.1490
     12 C10         1.2395   -1.7990    3.0264 C.ar      1 <0>        -0.1176
     13 O3          0.0866   -2.9498    4.7514 O.3       1 <0>        -0.2803
     14 C11         0.0011   -4.2872    4.6672 C.2       1 <0>         0.4627
     15 O4          0.0003   -4.8256    3.5854 O.2       1 <0>        -0.4759
     16 C12        -0.0938   -5.1168    5.9217 C.3       1 <0>         0.1542
     17 N1         -0.1759   -6.5351    5.5643 N.am      1 <0>        -0.7432
     18 C13        -0.2686   -7.4695    6.5312 C.2       1 <0>         0.7122
     19 O5         -0.2840   -7.1352    7.7001 O.2       1 <0>        -0.5832
     20 N2         -0.3441   -8.7743    6.2023 N.am      1 <0>        -0.7383
     21 C14        -0.4448   -9.7899    7.2533 C.3       1 <0>         0.1634
     22 C15         0.9565  -10.1478    7.7527 C.3       1 <0>        -0.1304
     23 C16         0.8513  -11.2085    8.8503 C.3       1 <0>        -0.1177
     24 C17         0.1755  -12.4602    8.2869 C.3       1 <0>        -0.1232
     25 C18        -1.2257  -12.1023    7.7875 C.3       1 <0>        -0.1161
     26 C19        -1.1205  -11.0416    6.6899 C.3       1 <0>        -0.1270
     27 Cl1        -2.6402   -2.5247    3.7137 Cl        1 <0>        -0.0345
     28 H1         -1.7350    1.2647   -0.3122 H         1 <0>         0.0958
     29 H2         -1.1851    0.3908   -1.7621 H         1 <0>         0.0892
     30 H3         -2.0754   -0.4737   -0.4860 H         1 <0>         0.0828
     31 H4          1.1541    0.9882   -1.4269 H         1 <0>         0.1702
     32 H5         -2.1669   -1.0240    1.3630 H         1 <0>         0.1614
     33 H6          2.1834   -2.0192    3.5027 H         1 <0>         0.1652
     34 H7          0.7899   -4.9476    6.5369 H         1 <0>         0.1201
     35 H8         -0.9852   -4.8306    6.4799 H         1 <0>         0.1200
     36 H9         -0.1636   -6.8018    4.6317 H         1 <0>         0.4085
     37 H10        -0.3318   -9.0410    5.2698 H         1 <0>         0.3976
     38 H11        -1.0366   -9.3989    8.0810 H         1 <0>         0.0905
     39 H12         1.5482  -10.5388    6.9251 H         1 <0>         0.0628
     40 H13         1.4379   -9.2560    8.1541 H         1 <0>         0.0685
     41 H14         1.8496  -11.4634    9.2061 H         1 <0>         0.0654
     42 H15         0.2595  -10.8174    9.6780 H         1 <0>         0.0653
     43 H16         0.7673  -12.8512    7.4593 H         1 <0>         0.0627
     44 H17         0.1006  -13.2158    9.0689 H         1 <0>         0.0647
     45 H18        -1.7071  -12.9941    7.3861 H         1 <0>         0.0681
     46 H19        -1.8175  -11.7113    8.6152 H         1 <0>         0.0662
     47 H20        -2.1188  -10.7867    6.3342 H         1 <0>         0.0692
     48 H21        -0.5287  -11.4327    5.8623 H         1 <0>         0.0683
@<TRIPOS>BOND
     1    1    2 1
     2    1   28 1
     3    1   29 1
     4    1   30 1
     5    2    8 1
     6    2    3 2
     7    3    4 1
     8    3   31 1
     9    4    5 2
    10    4    6 1
    11    6    7 1
    12    7   12 ar
    13    7    8 ar
    14    8    9 ar
    15    9   10 ar
    16    9   32 1
    17   10   11 ar
    18   10   27 1
    19   11   12 ar
    20   11   13 1
    21   12   33 1
    22   13   14 1
    23   14   15 2
    24   14   16 1
    25   16   17 1
    26   16   34 1
    27   16   35 1
    28   17   18 am
    29   17   36 1
    30   18   19 2
    31   18   20 am
    32   20   21 1
    33   20   37 1
    34   21   26 1
    35   21   22 1
    36   21   38 1
    37   22   23 1
    38   22   39 1
    39   22   40 1
    40   23   24 1
    41   23   41 1
    42   23   42 1
    43   24   25 1
    44   24   43 1
    45   24   44 1
    46   25   26 1
    47   25   45 1
    48   25   46 1
    49   26   47 1
    50   26   48 1
@<TRIPOS>MOLECULE
ZINC62476468
   54    57     0     0     0
SMALL
USER_CHARGES

@<TRIPOS>ATOM
      1 C1         -2.2667   -9.4109    3.9912 C.2       1 <0>         0.0252
      2 C2         -3.3636   -9.9093    4.5596 C.2       1 <0>        -0.1715
      3 S1         -4.6402   -8.8623    3.8782 S.3       1 <0>         0.1329
      4 C3         -3.5917   -7.8327    2.8783 C.2       1 <0>         0.1752
      5 N1         -2.3446   -8.3445    3.1222 N.pl3     1 <0>        -0.4359
      6 C4         -1.4837   -7.5641    2.3550 C.2       1 <0>        -0.0158
      7 C5         -2.2268   -6.6512    1.7079 C.2       1 <0>         0.0181
      8 N2         -3.5127   -6.8362    2.0442 N.2       1 <0>        -0.4287
      9 C6         -1.7051   -5.5981    0.7646 C.3       1 <0>         0.2260
     10 N3         -1.7989   -6.0871   -0.6133 N.am      1 <0>        -0.7419
     11 C7         -1.3871   -5.3092   -1.6339 C.2       1 <0>         0.7119
     12 O1         -1.0242   -4.1685   -1.4208 O.2       1 <0>        -0.5858
     13 N4         -1.3774   -5.7958   -2.8907 N.am      1 <0>        -0.6295
     14 C8         -0.8233   -5.0025   -3.9963 C.3       1 <0>         0.1337
     15 C9          0.2294   -5.8422   -4.7266 C.3       1 <0>        -0.1422
     16 C10        -0.3938   -7.1719   -5.1577 C.3       1 <0>         0.1456
     17 C11        -0.8557   -7.9455   -3.9206 C.3       1 <0>        -0.1441
     18 C12        -1.9152   -7.1321   -3.1803 C.3       1 <0>         0.1157
     19 N5          0.6009   -7.9639   -5.8854 N.am      1 <0>        -0.7284
     20 C13         0.2017   -8.8950   -6.7742 C.2       1 <0>         0.5182
     21 O2         -0.9809   -9.0773   -6.9717 O.2       1 <0>        -0.5355
     22 C14         1.2249   -9.7097   -7.5228 C.3       1 <0>        -0.1063
     23 C15         2.1199   -8.7770   -8.3413 C.3       1 <0>        -0.1098
     24 C16         3.1587   -9.6042   -9.1013 C.3       1 <0>        -0.1185
     25 C17         2.4462  -10.5804  -10.0395 C.3       1 <0>        -0.1233
     26 C18         1.5512  -11.5131   -9.2210 C.3       1 <0>        -0.1207
     27 C19         0.5124  -10.6860   -8.4610 C.3       1 <0>        -0.0994
     28 H1         -1.3042   -9.8452    4.2178 H         1 <0>         0.1759
     29 H2         -3.4569  -10.7327    5.2522 H         1 <0>         0.2190
     30 H3         -0.4111   -7.6729    2.2919 H         1 <0>         0.1857
     31 H4         -2.2991   -4.6902    0.8691 H         1 <0>         0.0883
     32 H5         -0.6640   -5.3806    1.0028 H         1 <0>         0.0865
     33 H6         -2.1575   -6.9707   -0.7910 H         1 <0>         0.3971
     34 H7         -1.6210   -4.7337   -4.6888 H         1 <0>         0.0706
     35 H8         -0.3598   -4.0986   -3.6011 H         1 <0>         0.1013
     36 H9          0.5793   -5.3022   -5.6064 H         1 <0>         0.0847
     37 H10         1.0693   -6.0337   -4.0588 H         1 <0>         0.0736
     38 H11        -1.2488   -6.9791   -5.8056 H         1 <0>         0.0917
     39 H12        -1.2782   -8.9026   -4.2268 H         1 <0>         0.0816
     40 H13        -0.0056   -8.1172   -3.2604 H         1 <0>         0.0693
     41 H14        -2.1719   -7.6328   -2.2467 H         1 <0>         0.0785
     42 H15        -2.8039   -7.0408   -3.8047 H         1 <0>         0.0755
     43 H16         1.5468   -7.8182   -5.7275 H         1 <0>         0.4002
     44 H17         1.8350  -10.2680   -6.8127 H         1 <0>         0.0962
     45 H18         1.5098   -8.2188   -9.0514 H         1 <0>         0.0687
     46 H19         2.6275   -8.0816   -7.6730 H         1 <0>         0.0656
     47 H20         3.7963   -8.9397   -9.6845 H         1 <0>         0.0665
     48 H21         3.7688  -10.1625   -8.3913 H         1 <0>         0.0642
     49 H22         1.8361  -10.0221  -10.7496 H         1 <0>         0.0633
     50 H23         3.1863  -11.1697  -10.5809 H         1 <0>         0.0636
     51 H24         1.0436  -12.2086   -9.8894 H         1 <0>         0.0664
     52 H25         2.1613  -12.0714   -8.5109 H         1 <0>         0.0622
     53 H26        -0.1252  -11.3504   -7.8779 H         1 <0>         0.0688
     54 H27        -0.0977  -10.1277   -9.1711 H         1 <0>         0.0700
@<TRIPOS>BOND
     1    1    5 1
     2    1    2 2
     3    1   28 1
     4    2    3 1
     5    2   29 1
     6    3    4 1
     7    4    8 2
     8    4    5 1
     9    5    6 1
    10    6    7 2
    11    6   30 1
    12    7    8 1
    13    7    9 1
    14    9   10 1
    15    9   31 1
    16    9   32 1
    17   10   11 am
    18   10   33 1
    19   11   12 2
    20   11   13 am
    21   13   18 1
    22   13   14 1
    23   14   15 1
    24   14   34 1
    25   14   35 1
    26   15   16 1
    27   15   36 1
    28   15   37 1
    29   16   17 1
    30   16   19 1
    31   16   38 1
    32   17   18 1
    33   17   39 1
    34   17   40 1
    35   18   41 1
    36   18   42 1
    37   19   20 am
    38   19   43 1
    39   20   21 2
    40   20   22 1
    41   22   27 1
    42   22   23 1
    43   22   44 1
    44   23   24 1
    45   23   45 1
    46   23   46 1
    47   24   25 1
    48   24   47 1
    49   24   48 1
    50   25   26 1
    51   25   49 1
    52   25   50 1
    53   26   27 1
    54   26   51 1
    55   26   52 1
    56   27   53 1
    57   27   54 1
@<TRIPOS>MOLECULE
ZINC01445488
   51    53     0     0     0
SMALL
USER_CHARGES
N-[(2-hydroxyphenyl)methyleneamino]-1-(p-tolylsulfonyl)piperidine-4-carboxamide
@<TRIPOS>ATOM
      1 C1         -8.5304    2.0754   -6.5334 C.3       1 <0>        -0.1268
      2 C2         -8.8591    1.1152   -5.4193 C.ar      1 <0>        -0.0267
      3 C3         -8.4808   -0.2109   -5.5157 C.ar      1 <0>        -0.1424
      4 C4         -8.7823   -1.0916   -4.4938 C.ar      1 <0>        -0.0170
      5 C5         -9.4612   -0.6461   -3.3752 C.ar      1 <0>        -0.6848
      6 C6         -9.8437    0.6789   -3.2809 C.ar      1 <0>        -0.0149
      7 C7         -9.5384    1.5606   -4.3009 C.ar      1 <0>        -0.1409
      8 S1         -9.8455   -1.7688   -2.0726 S.o2      1 <0>         2.6910
      9 O1         -9.8640   -3.0678   -2.6483 O.2       1 <0>        -0.9538
     10 O2        -10.9630   -1.2246   -1.3839 O.2       1 <0>        -0.9522
     11 N1         -8.5751   -1.7398   -1.0106 N.pl3     1 <0>        -0.9979
     12 C8         -8.5587   -0.7912    0.1112 C.3       1 <0>         0.1200
     13 C9         -7.2478    0.0003    0.0685 C.3       1 <0>        -0.1167
     14 C10        -6.0682   -0.9747    0.0524 C.3       1 <0>        -0.0979
     15 C11        -6.1449   -1.8502   -1.2004 C.3       1 <0>        -0.1306
     16 C12        -7.4433   -2.6627   -1.1721 C.3       1 <0>         0.1226
     17 C13        -4.7760   -0.1993    0.0448 C.2       1 <0>         0.5342
     18 O3         -4.7964    1.0137    0.0515 O.2       1 <0>        -0.4939
     19 N2         -3.5977   -0.8533    0.0304 N.am      1 <0>        -0.5882
     20 N3         -2.3964   -0.1325    0.0233 N.2       1 <0>        -0.2043
     21 C14        -1.2616   -0.7624    0.0095 C.2       1 <0>         0.1009
     22 C15         0.0021   -0.0041    0.0020 C.ar      1 <0>        -0.0876
     23 C16         1.2254   -0.6779   -0.0133 C.ar      1 <0>        -0.0753
     24 C17         2.4042    0.0376   -0.0207 C.ar      1 <0>        -0.1348
     25 C18         2.3806    1.4219   -0.0135 C.ar      1 <0>        -0.0861
     26 C19         1.1767    2.1004    0.0021 C.ar      1 <0>        -0.1535
     27 C20        -0.0169    1.3973    0.0097 C.ar      1 <0>         0.1464
     28 O4         -1.2005    2.0632    0.0189 O.3       1 <0>        -0.4736
     29 H1         -9.3454    2.0849   -7.2571 H         1 <0>         0.0806
     30 H2         -8.3973    3.0763   -6.1229 H         1 <0>         0.0739
     31 H3         -7.6108    1.7594   -7.0259 H         1 <0>         0.0732
     32 H4         -7.9501   -0.5589   -6.3896 H         1 <0>         0.1326
     33 H5         -8.4871   -2.1278   -4.5693 H         1 <0>         0.1384
     34 H6        -10.3780    1.0261   -2.4089 H         1 <0>         0.1397
     35 H7         -9.8336    2.5968   -4.2254 H         1 <0>         0.1335
     36 H8         -8.6255   -1.3370    1.0523 H         1 <0>         0.0813
     37 H9         -9.4020   -0.1063    0.0230 H         1 <0>         0.0980
     38 H10        -7.1797    0.6392    0.9490 H         1 <0>         0.0889
     39 H11        -7.2234    0.6156   -0.8309 H         1 <0>         0.0788
     40 H12        -6.1072   -1.6066    0.9397 H         1 <0>         0.1066
     41 H13        -6.1309   -1.2175   -2.0879 H         1 <0>         0.0780
     42 H14        -5.2918   -2.5284   -1.2231 H         1 <0>         0.0803
     43 H15        -7.4191   -3.3611   -0.3356 H         1 <0>         0.0826
     44 H16        -7.5507   -3.2126   -2.1070 H         1 <0>         0.0973
     45 H17        -3.5814   -1.8232    0.0251 H         1 <0>         0.3836
     46 H18        -1.2434   -1.8422    0.0036 H         1 <0>         0.1200
     47 H19         1.2481   -1.7577   -0.0197 H         1 <0>         0.1320
     48 H20         3.3498   -0.4840   -0.0325 H         1 <0>         0.1306
     49 H21         3.3084    1.9747   -0.0197 H         1 <0>         0.1297
     50 H22         1.1664    3.1804    0.0076 H         1 <0>         0.1327
     51 H23        -1.5391    2.2512    0.9050 H         1 <0>         0.3926
@<TRIPOS>BOND
     1    1    2 1
     2    1   29 1
     3    1   30 1
     4    1   31 1
     5    2    7 ar
     6    2    3 ar
     7    3    4 ar
     8    3   32 1
     9    4    5 ar
    10    4   33 1
    11    5    6 ar
    12    5    8 1
    13    6    7 ar
    14    6   34 1
    15    7   35 1
    16    8    9 2
    17    8   10 2
    18    8   11 1
    19   11   16 1
    20   11   12 1
    21   12   13 1
    22   12   36 1
    23   12   37 1
    24   13   14 1
    25   13   38 1
    26   13   39 1
    27   14   15 1
    28   14   17 1
    29   14   40 1
    30   15   16 1
    31   15   41 1
    32   15   42 1
    33   16   43 1
    34   16   44 1
    35   17   18 2
    36   17   19 am
    37   19   20 1
    38   19   45 1
    39   20   21 2
    40   21   22 1
    41   21   46 1
    42   22   27 ar
    43   22   23 ar
    44   23   24 ar
    45   23   47 1
    46   24   25 ar
    47   24   48 1
    48   25   26 ar
    49   25   49 1
    50   26   27 ar
    51   26   50 1
    52   27   28 1
    53   28   51 1
@<TRIPOS>MOLECULE
ZINC21344503
   50    52     0     0     0
SMALL
USER_CHARGES
N-[3-[(2,4-dimethylphenyl)sulfamoyl]-4-methyl-phenyl]-5,6-dihydro-1,4-dioxine-2-carboxamide
@<TRIPOS>ATOM
      1 C1          1.2666   -6.2816   -3.4596 C.3       1 <0>        -0.1169
      2 C2          1.3033   -5.0026   -2.6634 C.ar      1 <0>        -0.0974
      3 C3          2.5180   -4.4247   -2.3417 C.ar      1 <0>        -0.0958
      4 C4          2.5553   -3.2559   -1.6074 C.ar      1 <0>        -0.1666
      5 C5          1.3706   -2.6542   -1.2016 C.ar      1 <0>         0.1542
      6 C6          0.1524   -3.2341   -1.5313 C.ar      1 <0>        -0.0985
      7 C7          0.1224   -4.4064   -2.2612 C.ar      1 <0>        -0.0988
      8 C8         -1.1352   -2.5853   -1.0928 C.3       1 <0>        -0.1186
      9 N1          1.4046   -1.4691   -0.4633 N.pl3     1 <0>        -1.0651
     10 S1          2.5817   -0.3426   -0.7594 S.o2      1 <0>         2.6975
     11 O1          2.2651    0.7936    0.0331 O.2       1 <0>        -0.9468
     12 O2          3.8268   -1.0197   -0.6571 O.2       1 <0>        -0.9522
     13 C9          2.4156    0.1547   -2.4416 C.ar      1 <0>        -0.6582
     14 C10         3.4283   -0.1108   -3.3427 C.ar      1 <0>        -0.0393
     15 C11         3.2943    0.2768   -4.6695 C.ar      1 <0>         0.1315
     16 C12         2.1460    0.9399   -5.0836 C.ar      1 <0>        -0.0578
     17 C13         1.1396    1.2069   -4.1765 C.ar      1 <0>        -0.1196
     18 C14         1.2742    0.8153   -2.8569 C.ar      1 <0>         0.0110
     19 C15         0.1741    1.1087   -1.8697 C.3       1 <0>        -0.1667
     20 N2          4.3153    0.0049   -5.5855 N.am      1 <0>        -0.6803
     21 C16         4.5760    0.8744   -6.5817 C.2       1 <0>         0.5793
     22 O3          3.9879    1.9393   -6.6298 O.2       1 <0>        -0.5031
     23 C17         5.5659    0.5384   -7.6058 C.2       1 <0>        -0.0711
     24 C18         6.2042   -0.6380   -7.5380 C.2       1 <0>         0.0145
     25 O4          7.1312   -0.9954   -8.4521 O.3       1 <0>        -0.2975
     26 C19         7.1387   -0.2635   -9.6834 C.3       1 <0>         0.0099
     27 C20         7.0254    1.2312   -9.3504 C.3       1 <0>         0.0167
     28 O5          5.8132    1.4263   -8.6087 O.3       1 <0>        -0.2839
     29 H1          2.2942   -6.6021   -3.6860 H         1 <0>         0.0660
     30 H2          0.7196   -6.1131   -4.3990 H         1 <0>         0.0690
     31 H3          0.7592   -7.0630   -2.8749 H         1 <0>         0.0699
     32 H4          3.4384   -4.8905   -2.6613 H         1 <0>         0.1276
     33 H5          3.5043   -2.8076   -1.3527 H         1 <0>         0.1581
     34 H6         -0.8245   -4.8577   -2.5182 H         1 <0>         0.1254
     35 H7         -1.9869   -3.1858   -1.4450 H         1 <0>         0.0705
     36 H8         -1.1993   -1.5731   -1.5186 H         1 <0>         0.0715
     37 H9         -1.1592   -2.5235    0.0052 H         1 <0>         0.0704
     38 H10         0.6495   -1.2840    0.3149 H         1 <0>         0.4524
     39 H11         4.3215   -0.6230   -3.0167 H         1 <0>         0.1474
     40 H12         2.0403    1.2460   -6.1139 H         1 <0>         0.1427
     41 H13         0.2466    1.7224   -4.4978 H         1 <0>         0.1378
     42 H14        -0.6456    1.6356   -2.3801 H         1 <0>         0.0856
     43 H15         0.5674    1.7400   -1.0593 H         1 <0>         0.1061
     44 H16        -0.2025    0.1646   -1.4491 H         1 <0>         0.0802
     45 H17         4.9057   -0.9186   -5.4930 H         1 <0>         0.4334
     46 H18         5.9775   -1.3405   -6.7225 H         1 <0>         0.1822
     47 H19         8.0771   -0.4618  -10.2221 H         1 <0>         0.1273
     48 H20         6.2865   -0.5795  -10.3030 H         1 <0>         0.0855
     49 H21         7.8936    1.5398   -8.7495 H         1 <0>         0.0821
     50 H22         6.9993    1.8137  -10.2831 H         1 <0>         0.1281
@<TRIPOS>BOND
     1    1    2 1
     2    1   29 1
     3    1   30 1
     4    1   31 1
     5    2    7 ar
     6    2    3 ar
     7    3    4 ar
     8    3   32 1
     9    4    5 ar
    10    4   33 1
    11    5    6 ar
    12    5    9 1
    13    6    7 ar
    14    6    8 1
    15    7   34 1
    16    8   35 1
    17    8   36 1
    18    8   37 1
    19    9   10 1
    20    9   38 1
    21   10   11 2
    22   10   12 2
    23   10   13 1
    24   13   18 ar
    25   13   14 ar
    26   14   15 ar
    27   14   39 1
    28   15   16 ar
    29   15   20 1
    30   16   17 ar
    31   16   40 1
    32   17   18 ar
    33   17   41 1
    34   18   19 1
    35   19   42 1
    36   19   43 1
    37   19   44 1
    38   20   21 am
    39   20   45 1
    40   21   22 2
    41   21   23 1
    42   23   28 1
    43   23   24 2
    44   24   25 1
    45   24   46 1
    46   25   26 1
    47   26   27 1
    48   26   47 1
    49   26   48 1
    50   27   28 1
    51   27   49 1
    52   27   50 1
@<TRIPOS>MOLECULE
ZINC36676798
   46    49     0     0     0
SMALL
USER_CHARGES

@<TRIPOS>ATOM
      1 C1         -0.0258    1.3787    0.0053 C.ar      1 <0>        -0.1511
      2 C2          1.1584    2.0929    0.0009 C.ar      1 <0>        -0.0659
      3 C3          2.3656    1.4249   -0.0077 C.ar      1 <0>        -0.1517
      4 C4          2.3964    0.0344   -0.0111 C.ar      1 <0>         0.1611
      5 C5          1.2088   -0.6788   -0.0036 C.ar      1 <0>        -0.1839
      6 C6          0.0006   -0.0020    0.0028 C.ar      1 <0>        -0.0547
      7 C7          1.2054   -2.1817    0.0025 C.3       1 <0>         0.1778
      8 C8          2.5679   -2.7270   -0.4143 C.3       1 <0>        -0.1546
      9 C9          3.6513   -1.9647    0.3609 C.3       1 <0>         0.0587
     10 O1          3.6021   -0.5908   -0.0256 O.3       1 <0>        -0.3085
     11 C10         0.8242   -2.7028    1.3688 C.2       1 <0>         0.5416
     12 O2          1.4133   -2.5238    2.4132 O.2       1 <0>        -0.4479
     13 N1         -0.3097   -3.4095    1.1812 N.am      1 <0>        -0.5629
     14 C11        -0.6879   -3.4031   -0.1029 C.2       1 <0>         0.7090
     15 O3         -1.6791   -3.9705   -0.5185 O.2       1 <0>        -0.5286
     16 N2          0.1531   -2.6967   -0.8826 N.am      1 <0>        -0.7089
     17 C12        -1.0368   -4.0986    2.2502 C.3       1 <0>         0.0999
     18 C13        -2.0550   -3.1629    2.8491 C.2       1 <0>         0.5071
     19 O4         -2.1628   -2.0318    2.4248 O.2       1 <0>        -0.4946
     20 N3         -2.8460   -3.5829    3.8563 N.am      1 <0>        -0.6707
     21 C14        -3.7097   -2.6826    4.4897 C.ar      1 <0>         0.2023
     22 C15        -3.4264   -1.3229    4.4808 C.ar      1 <0>        -0.1334
     23 C16        -4.2808   -0.4369    5.1068 C.ar      1 <0>        -0.0629
     24 C17        -5.4175   -0.9023    5.7427 C.ar      1 <0>        -0.1370
     25 C18        -5.7021   -2.2552    5.7538 C.ar      1 <0>        -0.0505
     26 C19        -4.8549   -3.1460    5.1237 C.ar      1 <0>        -0.2187
     27 C20        -5.1697   -4.6197    5.1300 C.3       1 <0>         0.5085
     28 F1         -6.3643   -4.8384    5.8244 F         1 <0>        -0.1706
     29 F2         -5.3057   -5.0732    3.8135 F         1 <0>        -0.1733
     30 F3         -4.1312   -5.3157    5.7580 F         1 <0>        -0.1790
     31 H1         -0.9712    1.9007    0.0153 H         1 <0>         0.1293
     32 H2          1.1382    3.1727    0.0038 H         1 <0>         0.1349
     33 H3          3.2898    1.9836   -0.0122 H         1 <0>         0.1375
     34 H4         -0.9259   -0.5570    0.0058 H         1 <0>         0.1247
     35 H5          2.6261   -3.7895   -0.1780 H         1 <0>         0.0979
     36 H6          2.7104   -2.5800   -1.4849 H         1 <0>         0.1047
     37 H7          3.4648   -2.0509    1.4314 H         1 <0>         0.0828
     38 H8          4.6314   -2.3775    0.1224 H         1 <0>         0.1226
     39 H9          0.0782   -2.5559   -1.8393 H         1 <0>         0.4451
     40 H10        -1.5432   -4.9725    1.8404 H         1 <0>         0.1377
     41 H11        -0.3349   -4.4140    3.0222 H         1 <0>         0.1361
     42 H12        -2.8164   -4.5094    4.1421 H         1 <0>         0.4150
     43 H13        -2.5386   -0.9589    3.9850 H         1 <0>         0.1551
     44 H14        -4.0611    0.6204    5.1002 H         1 <0>         0.1378
     45 H15        -6.0840   -0.2074    6.2319 H         1 <0>         0.1383
     46 H16        -6.5903   -2.6156    6.2515 H         1 <0>         0.1439
@<TRIPOS>BOND
     1    1    6 ar
     2    1    2 ar
     3    1   31 1
     4    2    3 ar
     5    2   32 1
     6    3    4 ar
     7    3   33 1
     8    4   10 1
     9    4    5 ar
    10    5    6 ar
    11    5    7 1
    12    6   34 1
    13    7   16 1
    14    7    8 1
    15    7   11 1
    16    8    9 1
    17    8   35 1
    18    8   36 1
    19    9   10 1
    20    9   37 1
    21    9   38 1
    22   11   12 2
    23   11   13 am
    24   13   14 am
    25   13   17 1
    26   14   15 2
    27   14   16 am
    28   16   39 1
    29   17   18 1
    30   17   40 1
    31   17   41 1
    32   18   19 2
    33   18   20 am
    34   20   21 1
    35   20   42 1
    36   21   26 ar
    37   21   22 ar
    38   22   23 ar
    39   22   43 1
    40   23   24 ar
    41   23   44 1
    42   24   25 ar
    43   24   45 1
    44   25   26 ar
    45   25   46 1
    46   26   27 1
    47   27   28 1
    48   27   29 1
    49   27   30 1
@<TRIPOS>MOLECULE
ZINC52220481
   47    50     0     0     0
SMALL
USER_CHARGES

@<TRIPOS>ATOM
      1 C1          1.5735   -3.8138    2.3056 C.3       1 <0>        -0.1448
      2 C2          0.7416   -2.7119    1.6464 C.3       1 <0>         0.0927
      3 H1          0.5851   -1.8999    2.3565 H         1 <0>         0.0664
      4 C3         -0.6123   -3.2821    1.2154 C.3       1 <0>         0.0184
      5 N1         -1.3764   -2.2400    0.5143 N.3       1 <0>        -0.5149
      6 C4         -0.6375   -1.7533   -0.6598 C.3       1 <0>         0.0154
      7 C5          0.7166   -1.1984   -0.2100 C.3       1 <0>         0.0694
      8 O1          1.4325   -2.2148    0.4971 O.3       1 <0>        -0.3791
      9 C6         -2.7076   -2.7301    0.1327 C.3       1 <0>         0.1122
     10 H2         -3.0461   -2.2043   -0.7601 H         1 <0>         0.1024
     11 C7         -2.6351   -4.2308   -0.1560 C.3       1 <0>         0.0781
     12 N2         -1.7248   -4.4687   -1.2789 N.pl3     1 <0>        -0.6974
     13 C8         -1.3589   -5.7613   -1.6111 C.ar      1 <0>         0.5071
     14 C9         -0.4869   -6.0082   -2.6849 C.ar      1 <0>        -0.1089
     15 C10        -0.1513   -7.3418   -2.9740 C.ar      1 <0>         0.3011
     16 N3          0.6988   -7.2931   -4.0498 N.pl3     1 <0>        -0.5797
     17 C11         0.8599   -5.9815   -4.3843 C.2       1 <0>         0.2531
     18 N4          0.1636   -5.2293   -3.5825 N.2       1 <0>        -0.4635
     19 H3          1.1100   -8.0528   -4.4912 H         1 <0>         0.4316
     20 N5         -0.6661   -8.3136   -2.2280 N.ar      1 <0>        -0.5621
     21 C12        -1.4796   -8.0349   -1.2311 C.ar      1 <0>         0.3651
     22 N6         -1.8196   -6.7978   -0.9184 N.ar      1 <0>        -0.5845
     23 C13        -3.6765   -2.4815    1.2598 C.ar      1 <0>        -0.1046
     24 C14        -4.5029   -3.5013    1.7004 C.ar      1 <0>         0.1129
     25 C15        -5.3927   -3.2717    2.7360 C.ar      1 <0>        -0.1496
     26 C16        -5.4556   -2.0249    3.3294 C.ar      1 <0>        -0.0753
     27 C17        -4.6308   -1.0070    2.8897 C.ar      1 <0>        -0.1251
     28 C18        -3.7368   -1.2364    1.8585 C.ar      1 <0>         0.0209
     29 Cl1        -2.6961    0.0410    1.3116 Cl        1 <0>        -0.0343
     30 F1         -4.4414   -4.7197    1.1198 F         1 <0>        -0.1192
     31 H4          2.5379   -3.4076    2.6108 H         1 <0>         0.0670
     32 H5          1.0458   -4.1934    3.1805 H         1 <0>         0.0720
     33 H6          1.7297   -4.6255    1.5950 H         1 <0>         0.0598
     34 H7         -0.4546   -4.1291    0.5476 H         1 <0>         0.0587
     35 H8         -1.1660   -3.6097    2.0952 H         1 <0>         0.0817
     36 H9         -0.4802   -2.5758   -1.3575 H         1 <0>         0.0468
     37 H10        -1.2097   -0.9648   -1.1488 H         1 <0>         0.0890
     38 H11         1.2912   -0.8888   -1.0830 H         1 <0>         0.0987
     39 H12         0.5593   -0.3419    0.4455 H         1 <0>         0.0595
     40 H13        -2.2671   -4.7533    0.7270 H         1 <0>         0.0889
     41 H14        -3.6288   -4.6005   -0.4091 H         1 <0>         0.1030
     42 H15        -1.3786   -3.7202   -1.7896 H         1 <0>         0.4133
     43 H16         1.4751   -5.6199   -5.1950 H         1 <0>         0.2262
     44 H17        -1.8808   -8.8482   -0.6447 H         1 <0>         0.2043
     45 H18        -6.0378   -4.0666    3.0799 H         1 <0>         0.1434
     46 H19        -6.1501   -1.8460    4.1370 H         1 <0>         0.1431
     47 H20        -4.6810   -0.0331    3.3538 H         1 <0>         0.1409
@<TRIPOS>BOND
     1    1    2 1
     2    1   31 1
     3    1   32 1
     4    1   33 1
     5    2    3 1
     6    2    8 1
     7    2    4 1
     8    4    5 1
     9    4   34 1
    10    4   35 1
    11    5    6 1
    12    5    9 1
    13    6    7 1
    14    6   36 1
    15    6   37 1
    16    7    8 1
    17    7   38 1
    18    7   39 1
    19    9   10 1
    20    9   11 1
    21    9   23 1
    22   11   40 1
    23   11   41 1
    24   11   12 1
    25   12   42 1
    26   12   13 1
    27   13   14 ar
    28   13   22 ar
    29   14   18 1
    30   14   15 ar
    31   15   16 1
    32   15   20 ar
    33   16   17 1
    34   16   19 1
    35   17   18 2
    36   17   43 1
    37   20   21 ar
    38   21   44 1
    39   21   22 ar
    40   23   28 ar
    41   23   24 ar
    42   24   25 ar
    43   24   30 1
    44   25   26 ar
    45   25   45 1
    46   26   27 ar
    47   26   46 1
    48   27   28 ar
    49   27   47 1
    50   28   29 1
@<TRIPOS>MOLECULE
ZINC02399537
   44    47     0     0     0
SMALL
USER_CHARGES

@<TRIPOS>ATOM
      1 C1         -0.0167    1.3781    0.0096 C.ar      1 <0>        -0.1041
      2 C2          1.1709    2.0855    0.0021 C.ar      1 <0>        -0.1173
      3 C3          2.3773    1.4107   -0.0130 C.ar      1 <0>        -0.0896
      4 C4          2.3960    0.0285   -0.0201 C.ar      1 <0>        -0.1198
      5 C5          1.2084   -0.6789   -0.0117 C.ar      1 <0>        -0.1046
      6 C6          0.0021   -0.0041    0.0020 C.ar      1 <0>        -0.1143
      7 C7          3.7112   -0.7071   -0.0376 C.3       1 <0>         0.2089
      8 H1          4.5316    0.0105   -0.0426 H         1 <0>         0.1330
      9 C8          3.7909   -1.5873   -1.2882 C.3       1 <0>        -0.1505
     10 C9          2.9453   -2.8208   -1.1390 C.2       1 <0>         0.5299
     11 O1          2.3684   -3.2632   -2.1097 O.2       1 <0>        -0.4895
     12 N1          2.8124   -3.4495    0.0502 N.am      1 <0>        -0.6277
     13 C10         3.3840   -2.8497    1.1657 C.2       1 <0>         0.5099
     14 N2          3.8122   -1.5593    1.1460 N.pl3     1 <0>        -0.3893
     15 N3          4.3232   -1.2807    2.4111 N.2       1 <0>        -0.3074
     16 C11         4.1888   -2.3789    3.1227 C.2       1 <0>         0.4645
     17 N4          3.6160   -3.3314    2.3556 N.2       1 <0>        -0.5098
     18 N5          4.5772   -2.5344    4.4558 N.am      1 <0>        -0.6225
     19 C12         4.3868   -3.7136    5.0801 C.2       1 <0>         0.5497
     20 O2          3.8764   -4.6430    4.4826 O.2       1 <0>        -0.4773
     21 C13         4.7937   -3.8764    6.4763 C.2       1 <0>        -0.2103
     22 C14         4.6031   -5.0564    7.1011 C.2       1 <0>        -0.0055
     23 C15         5.0122   -5.2201    8.5050 C.ar      1 <0>        -0.0763
     24 C16         5.5937   -4.1523    9.1965 C.ar      1 <0>        -0.0871
     25 C17         5.9740   -4.3128   10.5116 C.ar      1 <0>        -0.1125
     26 C18         5.7816   -5.5280   11.1486 C.ar      1 <0>        -0.0230
     27 C19         5.2061   -6.5900   10.4699 C.ar      1 <0>        -0.1126
     28 C20         4.8161   -6.4424    9.1561 C.ar      1 <0>        -0.0785
     29 Cl1         6.2642   -5.7211   12.8050 Cl        1 <0>        -0.0628
     30 H2         -0.9591    1.9053    0.0259 H         1 <0>         0.1276
     31 H3          1.1563    3.1654    0.0076 H         1 <0>         0.1295
     32 H4          3.3051    1.9634   -0.0196 H         1 <0>         0.1301
     33 H5          1.2231   -1.7588   -0.0176 H         1 <0>         0.1142
     34 H6         -0.9258   -0.5567    0.0082 H         1 <0>         0.1265
     35 H7          3.4424   -1.0171   -2.1493 H         1 <0>         0.1423
     36 H8          4.8274   -1.8823   -1.4520 H         1 <0>         0.1261
     37 H9          2.3346   -4.2906    0.1223 H         1 <0>         0.4375
     38 H10         4.9840   -1.7936    4.9320 H         1 <0>         0.4272
     39 H11         5.2465   -3.0516    7.0065 H         1 <0>         0.1363
     40 H12         4.1502   -5.8811    6.5709 H         1 <0>         0.1422
     41 H13         5.7447   -3.2046    8.7011 H         1 <0>         0.1387
     42 H14         6.4235   -3.4893   11.0467 H         1 <0>         0.1387
     43 H15         5.0591   -7.5344   10.9727 H         1 <0>         0.1393
     44 H16         4.3639   -7.2698    8.6295 H         1 <0>         0.1404
@<TRIPOS>BOND
     1    1    6 ar
     2    1    2 ar
     3    1   30 1
     4    2    3 ar
     5    2   31 1
     6    3    4 ar
     7    3   32 1
     8    4    5 ar
     9    4    7 1
    10    5    6 ar
    11    5   33 1
    12    6   34 1
    13    7    8 1
    14    7   14 1
    15    7    9 1
    16    9   10 1
    17    9   35 1
    18    9   36 1
    19   10   11 2
    20   10   12 am
    21   12   13 1
    22   12   37 1
    23   13   17 2
    24   13   14 1
    25   14   15 1
    26   15   16 2
    27   16   17 1
    28   16   18 1
    29   18   19 am
    30   18   38 1
    31   19   20 2
    32   19   21 1
    33   21   22 2
    34   21   39 1
    35   22   23 1
    36   22   40 1
    37   23   28 ar
    38   23   24 ar
    39   24   25 ar
    40   24   41 1
    41   25   26 ar
    42   25   42 1
    43   26   27 ar
    44   26   29 1
    45   27   28 ar
    46   27   43 1
    47   28   44 1
@<TRIPOS>MOLECULE
ZINC04517039
   52    54     0     0     0
SMALL
USER_CHARGES
tert-butyl allyl-amino-cyano-methyl-oxo-BLAHcarboxylate
@<TRIPOS>ATOM
      1 C1         -2.7494   -0.1219    0.0157 C.3       1 <0>        -0.1264
      2 C2         -2.4829    1.3613    0.0217 C.2       1 <0>         0.2428
      3 C3         -1.2495    1.9034    0.0183 C.2       1 <0>        -0.2735
      4 C4         -1.4554    3.4010    0.0335 C.3       1 <0>         0.0989
      5 C5         -0.8620    3.9967    1.2778 C.ar      1 <0>        -0.1072
      6 C6         -1.4929    3.8177    2.4953 C.ar      1 <0>        -0.0762
      7 C7         -0.9527    4.3619    3.6448 C.ar      1 <0>        -0.1262
      8 C8          0.2213    5.0899    3.5806 C.ar      1 <0>        -0.0818
      9 C9          0.8555    5.2723    2.3682 C.ar      1 <0>        -0.1214
     10 C10         0.3159    4.7258    1.2102 C.ar      1 <0>         0.1387
     11 O1          0.9488    4.9131    0.0262 O.3       1 <0>        -0.2336
     12 C11         0.2882    4.7366   -1.1301 C.2       1 <0>         0.4717
     13 C12        -0.8639    4.0244   -1.1948 C.2       1 <0>        -0.2774
     14 C13        -1.5252    3.8655   -2.4550 C.1       1 <0>         0.2690
     15 N1         -2.0497    3.7394   -3.4547 N.1       1 <0>        -0.4392
     16 N2          0.7940    5.2925   -2.2787 N.pl3     1 <0>        -0.8247
     17 C14        -2.9586    3.5605    0.0348 C.2       1 <0>         0.5358
     18 O2         -3.5831    4.5998    0.0433 O.2       1 <0>        -0.4566
     19 N3         -3.4622    2.3103    0.0311 N.am      1 <0>        -0.5440
     20 C15        -4.8953    2.0062    0.0372 C.3       1 <0>         0.1286
     21 C16        -5.3793    1.8953    1.4600 C.2       1 <0>        -0.1921
     22 C17        -6.3838    2.6298    1.8692 C.2       1 <0>        -0.1503
     23 C18        -0.0144    1.2125    0.0087 C.2       1 <0>         0.5548
     24 O3          0.0021   -0.0041    0.0020 O.2       1 <0>        -0.5150
     25 O4          1.1449    1.9031    0.0013 O.3       1 <0>        -0.3332
     26 C19         2.3537    1.1412   -0.0143 C.3       1 <0>         0.1196
     27 C20         2.3886    0.2658   -1.2686 C.3       1 <0>        -0.1840
     28 C21         3.5543    2.0896   -0.0207 C.3       1 <0>        -0.1374
     29 C22         2.4125    0.2524    1.2297 C.3       1 <0>        -0.1833
     30 H1         -2.8087   -0.4846    1.0419 H         1 <0>         0.0987
     31 H2         -3.6922   -0.3196   -0.4945 H         1 <0>         0.0788
     32 H3         -1.9403   -0.6344   -0.5046 H         1 <0>         0.1154
     33 H4         -2.4102    3.2500    2.5479 H         1 <0>         0.1224
     34 H5         -1.4480    4.2192    4.5939 H         1 <0>         0.1330
     35 H6          0.6423    5.5156    4.4795 H         1 <0>         0.1396
     36 H7          1.7723    5.8410    2.3195 H         1 <0>         0.1413
     37 H8          1.6174    5.8043   -2.2480 H         1 <0>         0.4135
     38 H9          0.3280    5.1735   -3.1211 H         1 <0>         0.4260
     39 H10        -5.4381    2.8037   -0.4702 H         1 <0>         0.0994
     40 H11        -5.0686    1.0625   -0.4802 H         1 <0>         0.1027
     41 H12        -4.8980    1.2103    2.1423 H         1 <0>         0.1171
     42 H13        -6.7307    2.5504    2.8889 H         1 <0>         0.1069
     43 H14        -6.8651    3.3148    1.1870 H         1 <0>         0.1020
     44 H15         2.3468    0.8990   -2.1549 H         1 <0>         0.0577
     45 H16         3.3107   -0.3154   -1.2806 H         1 <0>         0.0681
     46 H17         1.5333   -0.4099   -1.2641 H         1 <0>         0.0844
     47 H18         3.5294    2.7132    0.8730 H         1 <0>         0.0660
     48 H19         4.4763    1.5084   -0.0326 H         1 <0>         0.0760
     49 H20         3.5124    2.7228   -0.9069 H         1 <0>         0.0631
     50 H21         1.5572   -0.4233    1.2342 H         1 <0>         0.0845
     51 H22         3.3346   -0.3288    1.2178 H         1 <0>         0.0677
     52 H23         2.3876    0.8760    2.1233 H         1 <0>         0.0594
@<TRIPOS>BOND
     1    1    2 1
     2    1   30 1
     3    1   31 1
     4    1   32 1
     5    2   19 1
     6    2    3 2
     7    3    4 1
     8    3   23 1
     9    4   13 1
    10    4    5 1
    11    4   17 1
    12    5   10 ar
    13    5    6 ar
    14    6    7 ar
    15    6   33 1
    16    7    8 ar
    17    7   34 1
    18    8    9 ar
    19    8   35 1
    20    9   10 ar
    21    9   36 1
    22   10   11 1
    23   11   12 1
    24   12   13 2
    25   12   16 1
    26   13   14 1
    27   14   15 3
    28   16   37 1
    29   16   38 1
    30   17   18 2
    31   17   19 am
    32   19   20 1
    33   20   21 1
    34   20   39 1
    35   20   40 1
    36   21   22 2
    37   21   41 1
    38   22   42 1
    39   22   43 1
    40   23   24 2
    41   23   25 1
    42   25   26 1
    43   26   27 1
    44   26   28 1
    45   26   29 1
    46   27   44 1
    47   27   45 1
    48   27   46 1
    49   28   47 1
    50   28   48 1
    51   28   49 1
    52   29   50 1
    53   29   51 1
    54   29   52 1
@<TRIPOS>MOLECULE
ZINC05619848
   49    51     0     0     0
SMALL
USER_CHARGES
(2S)-N-(methylcarbamoyl)-2-[[5-methyl-4-(o-tolyl)-1,2,4-triazol-3-yl]sulfanyl]-2-phenyl-acetamide
@<TRIPOS>ATOM
      1 C1         -2.5514    3.8822    0.0460 C.3       1 <0>        -0.1215
      2 C2         -1.2387    3.1421    0.0304 C.ar      1 <0>        -0.0545
      3 C3         -0.0491    3.8443    0.0233 C.ar      1 <0>        -0.1114
      4 C4          1.1555    3.1660    0.0081 C.ar      1 <0>        -0.0908
      5 C5          1.1735    1.7832    0.0004 C.ar      1 <0>        -0.1144
      6 C6         -0.0126    1.0758    0.0080 C.ar      1 <0>        -0.0897
      7 C7         -1.2238    1.7543    0.0174 C.ar      1 <0>         0.0900
      8 N1         -2.4300    1.0386    0.0187 N.pl3     1 <0>        -0.4134
      9 C8         -3.1369    0.6099    1.1108 C.2       1 <0>         0.1963
     10 N2         -4.1928   -0.0128    0.6687 N.2       1 <0>        -0.2798
     11 N3         -4.2036   -0.0083   -0.6163 N.2       1 <0>        -0.2772
     12 C9         -3.1489    0.6283   -1.0704 C.2       1 <0>         0.1492
     13 S1         -2.7359    0.8995   -2.7617 S.3       1 <0>         0.0944
     14 C10        -4.1368    0.0797   -3.5626 C.3       1 <0>        -0.0681
     15 H1         -4.2089   -0.9478   -3.2060 H         1 <0>         0.1352
     16 C11        -5.4080    0.8174   -3.2296 C.ar      1 <0>        -0.0967
     17 C12        -5.5478    2.1471   -3.5808 C.ar      1 <0>        -0.0945
     18 C13        -6.7155    2.8225   -3.2792 C.ar      1 <0>        -0.1228
     19 C14        -7.7399    2.1709   -2.6182 C.ar      1 <0>        -0.1052
     20 C15        -7.5981    0.8427   -2.2623 C.ar      1 <0>        -0.1206
     21 C16        -6.4320    0.1660   -2.5678 C.ar      1 <0>        -0.0660
     22 C17        -3.9324    0.0799   -5.0557 C.2       1 <0>         0.5491
     23 O1         -3.1638    0.8690   -5.5621 O.2       1 <0>        -0.4451
     24 N4         -4.6039   -0.7970   -5.8280 N.am      1 <0>        -0.6816
     25 C18        -4.4210   -0.7968   -7.1633 C.2       1 <0>         0.6941
     26 O2         -3.6506   -0.0057   -7.6710 O.2       1 <0>        -0.5245
     27 N5         -5.0926   -1.6737   -7.9356 N.am      1 <0>        -0.7394
     28 C19        -4.8938   -1.6735   -9.3870 C.3       1 <0>         0.1021
     29 C20        -2.7632    0.8199    2.5556 C.3       1 <0>        -0.0680
     30 H2         -2.8771    4.0659   -0.9778 H         1 <0>         0.0810
     31 H3         -3.3003    3.2827    0.5635 H         1 <0>         0.0629
     32 H4         -2.4261    4.8332    0.5636 H         1 <0>         0.0777
     33 H5         -0.0601    4.9243    0.0292 H         1 <0>         0.1362
     34 H6          2.0843    3.7171    0.0018 H         1 <0>         0.1345
     35 H7          2.1160    1.2560   -0.0118 H         1 <0>         0.1362
     36 H8          0.0021   -0.0041    0.0020 H         1 <0>         0.1303
     37 H9         -4.7460    2.6572   -4.0939 H         1 <0>         0.1264
     38 H10        -6.8265    3.8601   -3.5576 H         1 <0>         0.1243
     39 H11        -8.6512    2.6994   -2.3802 H         1 <0>         0.1230
     40 H12        -8.3984    0.3336   -1.7459 H         1 <0>         0.1255
     41 H13        -6.3212   -0.8716   -2.2897 H         1 <0>         0.1281
     42 H14        -5.2188   -1.4283   -5.4228 H         1 <0>         0.4131
     43 H15        -5.7075   -2.3051   -7.5304 H         1 <0>         0.4016
     44 H16        -3.8460   -1.8745   -9.6103 H         1 <0>         0.0633
     45 H17        -5.5163   -2.4457   -9.8391 H         1 <0>         0.0821
     46 H18        -5.1712   -0.7001   -9.7916 H         1 <0>         0.0632
     47 H19        -3.1977    1.7542    2.9112 H         1 <0>         0.0876
     48 H20        -3.1436   -0.0084    3.1533 H         1 <0>         0.0985
     49 H21        -1.6780    0.8658    2.6472 H         1 <0>         0.0790
@<TRIPOS>BOND
     1    1    2 1
     2    1   30 1
     3    1   31 1
     4    1   32 1
     5    2    7 ar
     6    2    3 ar
     7    3    4 ar
     8    3   33 1
     9    4    5 ar
    10    4   34 1
    11    5    6 ar
    12    5   35 1
    13    6    7 ar
    14    6   36 1
    15    7    8 1
    16    8   12 1
    17    8    9 1
    18    9   10 2
    19    9   29 1
    20   10   11 1
    21   11   12 2
    22   12   13 1
    23   13   14 1
    24   14   15 1
    25   14   16 1
    26   14   22 1
    27   16   21 ar
    28   16   17 ar
    29   17   18 ar
    30   17   37 1
    31   18   19 ar
    32   18   38 1
    33   19   20 ar
    34   19   39 1
    35   20   21 ar
    36   20   40 1
    37   21   41 1
    38   22   23 2
    39   22   24 am
    40   24   25 am
    41   24   42 1
    42   25   26 2
    43   25   27 am
    44   27   28 1
    45   27   43 1
    46   28   44 1
    47   28   45 1
    48   28   46 1
    49   29   47 1
    50   29   48 1
    51   29   49 1
@<TRIPOS>MOLECULE
ZINC21548878
   43    45     0     0     0
SMALL
USER_CHARGES

@<TRIPOS>ATOM
      1 C1         -0.0167    1.3789    0.0096 C.ar      1 <0>        -0.0898
      2 C2          1.1697    2.0892    0.0021 C.ar      1 <0>        -0.0769
      3 C3          2.3804    1.4168   -0.0130 C.ar      1 <0>         0.0785
      4 C4          2.3999    0.0239   -0.0206 C.ar      1 <0>         0.0706
      5 C5          1.2083   -0.6820   -0.0134 C.ar      1 <0>        -0.0792
      6 C6          0.0021   -0.0041    0.0020 C.ar      1 <0>        -0.0232
      7 Cl1        -1.4903   -0.8909    0.0120 Cl        1 <0>        -0.0545
      8 O1          3.6993   -0.3941   -0.0347 O.3       1 <0>        -0.2783
      9 C7          4.4748    0.7472    0.3766 C.3       1 <0>         0.4410
     10 O2          3.6679    1.8710   -0.0224 O.3       1 <0>        -0.2784
     11 C8          5.8230    0.7698   -0.3464 C.3       1 <0>         0.4966
     12 F1          5.6103    0.8236   -1.7281 F         1 <0>        -0.1450
     13 F2          6.5500    1.8948    0.0576 F         1 <0>        -0.1512
     14 F3          6.5414   -0.3881   -0.0299 F         1 <0>        -0.1505
     15 N1          4.6680    0.7421    1.8288 N.am      1 <0>        -0.7361
     16 C9          3.6002    0.7663    2.6508 C.2       1 <0>         0.7102
     17 O3          2.4766    0.7925    2.1871 O.2       1 <0>        -0.5511
     18 N2          3.7780    0.7616    3.9868 N.am      1 <0>        -0.7312
     19 C10         2.6173    0.7879    4.8802 C.3       1 <0>         0.1408
     20 C11         3.0927    0.7762    6.3344 C.3       1 <0>         0.0440
     21 N3          1.9289    0.8027    7.2304 N.3       1 <0>        -0.5324
     22 C12         1.2050    2.0772    7.1163 C.3       1 <0>         0.0118
     23 C13        -0.0304    2.0388    8.0196 C.3       1 <0>         0.0627
     24 O4          0.3760    1.7655    9.3633 O.3       1 <0>        -0.3845
     25 C14         1.0833    0.5313    9.5110 C.3       1 <0>         0.0626
     26 C15         2.3301    0.5543    8.6227 C.3       1 <0>         0.0188
     27 H1         -0.9597    1.9050    0.0260 H         1 <0>         0.1471
     28 H2          1.1522    3.1690    0.0077 H         1 <0>         0.1417
     29 H3          1.2205   -1.7619   -0.0197 H         1 <0>         0.1419
     30 H4          5.5645    0.7212    2.1987 H         1 <0>         0.4149
     31 H5          4.6744    0.7407    4.3567 H         1 <0>         0.3994
     32 H6          2.0367    1.6917    4.6951 H         1 <0>         0.0718
     33 H7          1.9956   -0.0878    4.6942 H         1 <0>         0.0819
     34 H8          3.6733   -0.1275    6.5196 H         1 <0>         0.0849
     35 H9          3.7144    1.6520    6.5205 H         1 <0>         0.0441
     36 H10         1.8565    2.8947    7.4251 H         1 <0>         0.0459
     37 H11         0.8952    2.2285    6.0822 H         1 <0>         0.0909
     38 H12        -0.5388    3.0023    7.9821 H         1 <0>         0.1005
     39 H13        -0.7072    1.2559    7.6777 H         1 <0>         0.0625
     40 H14         1.3804    0.4044   10.5520 H         1 <0>         0.1006
     41 H15         0.4389   -0.2955    9.2124 H         1 <0>         0.0621
     42 H16         2.8415   -0.4060    8.6884 H         1 <0>         0.0889
     43 H17         2.9995    1.3475    8.9556 H         1 <0>         0.0457
@<TRIPOS>BOND
     1    1    6 ar
     2    1    2 ar
     3    1   27 1
     4    2    3 ar
     5    2   28 1
     6    3   10 1
     7    3    4 ar
     8    4    5 ar
     9    4    8 1
    10    5    6 ar
    11    5   29 1
    12    6    7 1
    13    8    9 1
    14    9   10 1
    15    9   11 1
    16    9   15 1
    17   11   12 1
    18   11   13 1
    19   11   14 1
    20   15   16 am
    21   15   30 1
    22   16   17 2
    23   16   18 am
    24   18   19 1
    25   18   31 1
    26   19   20 1
    27   19   32 1
    28   19   33 1
    29   20   21 1
    30   20   34 1
    31   20   35 1
    32   21   26 1
    33   21   22 1
    34   22   23 1
    35   22   36 1
    36   22   37 1
    37   23   24 1
    38   23   38 1
    39   23   39 1
    40   24   25 1
    41   25   26 1
    42   25   40 1
    43   25   41 1
    44   26   42 1
    45   26   43 1
@<TRIPOS>MOLECULE
ZINC43328569
   56    58     0     0     0
SMALL
USER_CHARGES

@<TRIPOS>ATOM
      1 C1         -0.0084    1.4924    0.0036 C.3       1 <0>        -0.1237
      2 C2          0.0159   -0.0144    0.0019 C.ar      1 <0>        -0.0583
      3 C3          0.0283   -0.7044   -1.1948 C.ar      1 <0>        -0.1214
      4 C4          0.0506   -2.0868   -1.1972 C.ar      1 <0>        -0.0335
      5 C5          0.0602   -2.7832   -0.0023 C.ar      1 <0>        -0.6645
      6 C6          0.0480   -2.0994    1.1973 C.ar      1 <0>        -0.0158
      7 C7          0.0318   -0.7106    1.2031 C.ar      1 <0>         0.1438
      8 N1          0.0251   -0.0145    2.4171 N.am      1 <0>        -0.6854
      9 C8         -0.6325   -0.5193    3.4798 C.2       1 <0>         0.7008
     10 O1         -1.1507   -1.6169    3.4087 O.2       1 <0>        -0.5637
     11 N2         -0.7157    0.1926    4.6212 N.am      1 <0>        -0.7291
     12 C9         -1.4305   -0.3561    5.7762 C.3       1 <0>         0.1634
     13 H1         -1.2856   -1.4358    5.8139 H         1 <0>         0.1035
     14 C10        -2.9232   -0.0461    5.6466 C.3       1 <0>        -0.1623
     15 C11        -0.8878    0.2763    7.0594 C.3       1 <0>         0.0716
     16 H2         -1.3573   -0.1776    7.9321 H         1 <0>         0.0898
     17 C12         0.6513    0.1124    7.1304 C.3       1 <0>        -0.1534
     18 C13         1.0318    1.3001    8.0561 C.3       1 <0>        -0.1570
     19 C14        -0.0076    2.3705    7.6596 C.3       1 <0>         0.0483
     20 O2         -1.1161    1.6945    7.0514 O.3       1 <0>        -0.3750
     21 S1          0.0875   -4.5450   -0.0108 S.o2      1 <0>         2.6888
     22 O3         -0.4581   -4.9656    1.2320 O.2       1 <0>        -0.9469
     23 O4         -0.4558   -4.9536   -1.2587 O.2       1 <0>        -0.9543
     24 N3          1.6769   -5.0101   -0.0116 N.pl3     1 <0>        -0.9957
     25 C15         2.3982   -5.2084   -1.2761 C.3       1 <0>         0.1186
     26 C16         3.6778   -4.3665   -1.2511 C.3       1 <0>        -0.1364
     27 C17         4.4901   -4.7174   -0.0024 C.3       1 <0>        -0.1178
     28 C18         3.6721   -4.3902    1.2490 C.3       1 <0>        -0.1361
     29 C19         2.3942   -5.2264    1.2523 C.3       1 <0>         0.1188
     30 H3          1.0132    1.8723    0.0001 H         1 <0>         0.0789
     31 H4         -0.5315    1.8483   -0.8840 H         1 <0>         0.0785
     32 H5         -0.5247    1.8464    0.8960 H         1 <0>         0.0689
     33 H6          0.0201   -0.1634   -2.1294 H         1 <0>         0.1370
     34 H7          0.0602   -2.6239   -2.1341 H         1 <0>         0.1400
     35 H8          0.0551   -2.6438    2.1300 H         1 <0>         0.1580
     36 H9          0.4938    0.8313    2.4938 H         1 <0>         0.4076
     37 H10        -0.3023    1.0683    4.6778 H         1 <0>         0.3996
     38 H11        -3.0681    1.0336    5.6090 H         1 <0>         0.0654
     39 H12        -3.3098   -0.4967    4.7325 H         1 <0>         0.0623
     40 H13        -3.4550   -0.4544    6.5060 H         1 <0>         0.0672
     41 H14         0.9244   -0.8411    7.5825 H         1 <0>         0.0869
     42 H15         1.1040    0.2218    6.1449 H         1 <0>         0.0805
     43 H16         0.9239    1.0243    9.1051 H         1 <0>         0.0789
     44 H17         2.0441    1.6460    7.8469 H         1 <0>         0.0830
     45 H18        -0.3445    2.9055    8.5475 H         1 <0>         0.0707
     46 H19         0.4344    3.0703    6.9503 H         1 <0>         0.0695
     47 H20         2.6558   -6.2615   -1.3886 H         1 <0>         0.0768
     48 H21         1.7695   -4.8928   -2.1088 H         1 <0>         0.0906
     49 H22         4.2699   -4.5779   -2.1415 H         1 <0>         0.0764
     50 H23         3.4169   -3.3084   -1.2299 H         1 <0>         0.0670
     51 H24         4.7296   -5.7807   -0.0119 H         1 <0>         0.0659
     52 H25         5.4131   -4.1376    0.0052 H         1 <0>         0.0646
     53 H26         4.2601   -4.6185    2.1379 H         1 <0>         0.0760
     54 H27         3.4112   -3.3319    1.2466 H         1 <0>         0.0654
     55 H28         1.7628   -4.9228    2.0873 H         1 <0>         0.0903
     56 H29         2.6514   -6.2810    1.3506 H         1 <0>         0.0766
@<TRIPOS>BOND
     1    1    2 1
     2    1   30 1
     3    1   31 1
     4    1   32 1
     5    2    7 ar
     6    2    3 ar
     7    3    4 ar
     8    3   33 1
     9    4    5 ar
    10    4   34 1
    11    5    6 ar
    12    5   21 1
    13    6    7 ar
    14    6   35 1
    15    7    8 1
    16    8    9 am
    17    8   36 1
    18    9   10 2
    19    9   11 am
    20   11   12 1
    21   11   37 1
    22   12   13 1
    23   12   14 1
    24   12   15 1
    25   14   38 1
    26   14   39 1
    27   14   40 1
    28   15   16 1
    29   15   20 1
    30   15   17 1
    31   17   18 1
    32   17   41 1
    33   17   42 1
    34   18   19 1
    35   18   43 1
    36   18   44 1
    37   19   20 1
    38   19   45 1
    39   19   46 1
    40   21   22 2
    41   21   23 2
    42   21   24 1
    43   24   29 1
    44   24   25 1
    45   25   26 1
    46   25   47 1
    47   25   48 1
    48   26   27 1
    49   26   49 1
    50   26   50 1
    51   27   28 1
    52   27   51 1
    53   27   52 1
    54   28   29 1
    55   28   53 1
    56   28   54 1
    57   29   55 1
    58   29   56 1
@<TRIPOS>MOLECULE
ZINC60292068
   54    57     0     0     0
SMALL
USER_CHARGES

@<TRIPOS>ATOM
      1 C1          0.5181    0.7327   -0.0953 C.2       1 <0>         0.3853
      2 N1          1.6944    1.2997   -0.1319 N.2       1 <0>        -0.4893
      3 C2          2.8031    0.5689   -0.2084 C.2       1 <0>         0.1000
      4 C3          2.7687   -0.8337   -0.2532 C.2       1 <0>        -0.2424
      5 C4          4.0657   -1.5037   -0.3374 C.2       1 <0>        -0.0523
      6 C5          5.1612   -0.7157   -0.3632 C.2       1 <0>        -0.1677
      7 S1          4.5371    0.9413   -0.2779 S.3       1 <0>         0.1453
      8 C6          6.5919   -1.1528   -0.4461 C.3       1 <0>        -0.0375
      9 C7          6.6595   -2.6529   -0.1256 C.3       1 <0>        -0.1154
     10 C8          5.5822   -3.3780   -0.9374 C.3       1 <0>        -0.1230
     11 C9          4.1970   -3.0232   -0.3950 C.3       1 <0>        -0.0584
     12 C10         1.4630   -1.4239   -0.2108 C.2       1 <0>         0.5510
     13 O1          1.3291   -2.6350   -0.2438 O.2       1 <0>        -0.5176
     14 N2          0.3874   -0.6183   -0.1336 N.am      1 <0>        -0.5309
     15 C11        -0.9515   -1.2112   -0.0900 C.3       1 <0>         0.1091
     16 C12        -1.4855   -1.3702   -1.5149 C.3       1 <0>        -0.1576
     17 C13        -2.8629   -1.9801   -1.4701 C.2       1 <0>         0.5342
     18 O2         -3.3677   -2.2600   -0.4035 O.2       1 <0>        -0.5340
     19 N3         -3.5337   -2.2144   -2.6153 N.am      1 <0>        -0.5962
     20 C14        -2.9791   -1.7899   -3.9080 C.3       1 <0>         0.1050
     21 C15        -2.9424   -2.9979   -4.8494 C.3       1 <0>        -0.1372
     22 C16        -4.3406   -3.6139   -4.9371 C.3       1 <0>        -0.1208
     23 C17        -4.7759   -4.0948   -3.5509 C.3       1 <0>        -0.1333
     24 C18        -4.8305   -2.9047   -2.5954 C.3       1 <0>         0.1617
     25 H1         -5.6146   -2.2185   -2.9156 H         1 <0>         0.0862
     26 C19        -5.1260   -3.4004   -1.1784 C.3       1 <0>        -0.1405
     27 C20        -5.5758   -2.2428   -0.3248 C.2       1 <0>         0.5574
     28 O3         -5.6526   -1.1308   -0.8027 O.2       1 <0>        -0.5649
     29 N4         -5.8929   -2.4433    0.9697 N.am      1 <0>        -0.8580
     30 H2         -0.3661    1.3493   -0.0288 H         1 <0>         0.2163
     31 H3          6.9724   -0.9748   -1.4519 H         1 <0>         0.0864
     32 H4          7.1883   -0.5958    0.2765 H         1 <0>         0.0847
     33 H5          7.6423   -3.0401   -0.3944 H         1 <0>         0.0763
     34 H6          6.4816   -2.8077    0.9385 H         1 <0>         0.0693
     35 H7          5.6509   -3.0753   -1.9822 H         1 <0>         0.0658
     36 H8          5.7355   -4.4545   -0.8625 H         1 <0>         0.0715
     37 H9          4.0783   -3.4383    0.6058 H         1 <0>         0.0784
     38 H10         3.4314   -3.4312   -1.0550 H         1 <0>         0.0850
     39 H11        -0.9007   -2.1884    0.3901 H         1 <0>         0.1123
     40 H12        -1.6181   -0.5618    0.4775 H         1 <0>         0.1075
     41 H13        -1.5363   -0.3929   -1.9951 H         1 <0>         0.1003
     42 H14        -0.8189   -2.0195   -2.0824 H         1 <0>         0.1021
     43 H15        -3.6089   -1.0108   -4.3376 H         1 <0>         0.0759
     44 H16        -1.9685   -1.4078   -3.7643 H         1 <0>         0.0845
     45 H17        -2.6235   -2.6768   -5.8410 H         1 <0>         0.0790
     46 H18        -2.2421   -3.7387   -4.4636 H         1 <0>         0.0686
     47 H19        -5.0452   -2.8653   -5.2995 H         1 <0>         0.0674
     48 H20        -4.3227   -4.4588   -5.6255 H         1 <0>         0.0700
     49 H21        -5.7620   -4.5544   -3.6184 H         1 <0>         0.0795
     50 H22        -4.0583   -4.8252   -3.1773 H         1 <0>         0.0692
     51 H23        -5.9134   -4.1534   -1.2137 H         1 <0>         0.0808
     52 H24        -4.2238   -3.8379   -0.7511 H         1 <0>         0.1172
     53 H25        -5.8315   -3.3327    1.3519 H         1 <0>         0.3971
     54 H26        -6.1824   -1.6982    1.5191 H         1 <0>         0.3965
@<TRIPOS>BOND
     1    1   14 1
     2    1    2 2
     3    1   30 1
     4    2    3 1
     5    3    7 1
     6    3    4 2
     7    4    5 1
     8    4   12 1
     9    5   11 1
    10    5    6 2
    11    6    7 1
    12    6    8 1
    13    8    9 1
    14    8   31 1
    15    8   32 1
    16    9   10 1
    17    9   33 1
    18    9   34 1
    19   10   11 1
    20   10   35 1
    21   10   36 1
    22   11   37 1
    23   11   38 1
    24   12   13 2
    25   12   14 am
    26   14   15 1
    27   15   16 1
    28   15   39 1
    29   15   40 1
    30   16   17 1
    31   16   41 1
    32   16   42 1
    33   17   18 2
    34   17   19 am
    35   19   24 1
    36   19   20 1
    37   20   21 1
    38   20   43 1
    39   20   44 1
    40   21   22 1
    41   21   45 1
    42   21   46 1
    43   22   23 1
    44   22   47 1
    45   22   48 1
    46   23   24 1
    47   23   49 1
    48   23   50 1
    49   24   25 1
    50   24   26 1
    51   26   27 1
    52   26   51 1
    53   26   52 1
    54   27   28 2
    55   27   29 am
    56   29   53 1
    57   29   54 1
@<TRIPOS>MOLECULE
ZINC03020180
   46    48     0     0     0
SMALL
USER_CHARGES
4-(4-bromophenyl)sulfanyl-3-nitro-N-(2-oxoazepan-3-yl)-benzamide
@<TRIPOS>ATOM
      1 C1         -4.3957    0.4337   -7.0976 C.ar      1 <0>        -0.0532
      2 C2         -5.5855    0.1327   -6.4647 C.ar      1 <0>        -0.1011
      3 C3         -6.4386    1.1491   -6.0724 C.ar      1 <0>        -0.0569
      4 C4         -6.0998    2.4701   -6.3074 C.ar      1 <0>        -0.1005
      5 C5         -4.9087    2.7778   -6.9343 C.ar      1 <0>        -0.0519
      6 C6         -4.0500    1.7594   -7.3299 C.ar      1 <0>        -0.1898
      7 S1         -2.5294    2.1479   -8.1307 S.3       1 <0>         0.1512
      8 C7         -1.3965    2.3851   -6.8023 C.ar      1 <0>        -0.0360
      9 C8         -1.7978    2.1315   -5.4928 C.ar      1 <0>        -0.1340
     10 C9         -0.9239    2.3132   -4.4592 C.ar      1 <0>        -0.0189
     11 C10         0.3783    2.7554   -4.7125 C.ar      1 <0>        -0.1460
     12 C11         0.7823    3.0158   -6.0257 C.ar      1 <0>         0.0297
     13 C12        -0.1011    2.8254   -7.0637 C.ar      1 <0>        -0.0439
     14 N1          0.3233    3.0937   -8.4563 N.pl3     1 <0>         0.0299
     15 O1          1.4561    3.4787   -8.6842 O.2       1 <0>        -0.1464
     16 O2         -0.4604    2.9295   -9.3741 O.3       1 <0>        -0.1440
     17 C13         1.3219    2.9526   -3.5963 C.2       1 <0>         0.5579
     18 O3          2.4540    3.3372   -3.8180 O.2       1 <0>        -0.5043
     19 N2          0.9294    2.7065   -2.3307 N.am      1 <0>        -0.7195
     20 C14         1.8667    2.9024   -1.2219 C.3       1 <0>         0.1347
     21 H1          2.4120    3.8355   -1.3638 H         1 <0>         0.1246
     22 C15         1.0971    2.9471    0.1009 C.3       1 <0>        -0.1260
     23 C16        -0.0943    2.0073    0.0616 C.3       1 <0>        -0.1264
     24 C17         0.2853    0.5394   -0.0086 C.3       1 <0>        -0.1471
     25 C18         0.9571    0.2131   -1.3438 C.3       1 <0>         0.0918
     26 N3          2.3981    0.4895   -1.2260 N.am      1 <0>        -0.7197
     27 C19         2.8426    1.7457   -1.1703 C.2       1 <0>         0.5117
     28 O4          4.0323    1.9623   -1.0784 O.2       1 <0>        -0.5300
     29 Br1        -8.0706    0.7321   -5.2129 Br        1 <0>        -0.0327
     30 H2         -3.7325   -0.3602   -7.4079 H         1 <0>         0.1443
     31 H3         -5.8525   -0.8973   -6.2796 H         1 <0>         0.1433
     32 H4         -6.7676    3.2612   -5.9997 H         1 <0>         0.1433
     33 H5         -4.6445    3.8090   -7.1168 H         1 <0>         0.1436
     34 H6         -2.8029    1.7899   -5.2942 H         1 <0>         0.1516
     35 H7         -1.2389    2.1155   -3.4453 H         1 <0>         0.1437
     36 H8          1.7859    3.3614   -6.2251 H         1 <0>         0.1729
     37 H9          0.0264    2.3998   -2.1539 H         1 <0>         0.4043
     38 H10         0.7464    3.9639    0.2778 H         1 <0>         0.0895
     39 H11         1.7612    2.6509    0.9128 H         1 <0>         0.0879
     40 H12        -0.7017    2.2517   -0.8099 H         1 <0>         0.0588
     41 H13        -0.6947    2.1690    0.9568 H         1 <0>         0.0810
     42 H14         0.9730    0.3078    0.8047 H         1 <0>         0.0776
     43 H15        -0.6132   -0.0685    0.0977 H         1 <0>         0.0830
     44 H16         0.8049   -0.8395   -1.5822 H         1 <0>         0.0893
     45 H17         0.5287    0.8344   -2.1303 H         1 <0>         0.0801
     46 H18         3.0285   -0.2468   -1.1889 H         1 <0>         0.4027
@<TRIPOS>BOND
     1    1    6 ar
     2    1    2 ar
     3    1   30 1
     4    2    3 ar
     5    2   31 1
     6    3    4 ar
     7    3   29 1
     8    4    5 ar
     9    4   32 1
    10    5    6 ar
    11    5   33 1
    12    6    7 1
    13    7    8 1
    14    8   13 ar
    15    8    9 ar
    16    9   10 ar
    17    9   34 1
    18   10   11 ar
    19   10   35 1
    20   11   12 ar
    21   11   17 1
    22   12   13 ar
    23   12   36 1
    24   13   14 1
    25   14   15 2
    26   14   16 1
    27   17   18 2
    28   17   19 am
    29   19   20 1
    30   19   37 1
    31   20   21 1
    32   20   27 1
    33   20   22 1
    34   22   23 1
    35   22   38 1
    36   22   39 1
    37   23   24 1
    38   23   40 1
    39   23   41 1
    40   24   25 1
    41   24   42 1
    42   24   43 1
    43   25   26 1
    44   25   44 1
    45   25   45 1
    46   26   27 am
    47   26   46 1
    48   27   28 2
@<TRIPOS>MOLECULE
ZINC11107526
   43    44     0     0     0
SMALL
USER_CHARGES
(2-bromo-4-methyl-phenyl)carbamoylmethyl 2-chloro-5-(methylsulfamoyl)benzoate
@<TRIPOS>ATOM
      1 C1         -6.3745   -7.2361   -5.8871 C.3       1 <0>        -0.1152
      2 C2         -6.0033   -5.7962   -6.1324 C.ar      1 <0>        -0.0906
      3 C3         -6.0981   -4.8747   -5.1056 C.ar      1 <0>        -0.0848
      4 C4         -5.7592   -3.5542   -5.3268 C.ar      1 <0>        -0.1095
      5 C5         -5.3223   -3.1518   -6.5820 C.ar      1 <0>         0.1660
      6 C6         -5.2331   -4.0786   -7.6131 C.ar      1 <0>        -0.1141
      7 C7         -5.5692   -5.3994   -7.3836 C.ar      1 <0>        -0.0739
      8 Br1        -4.6462   -3.5350   -9.3266 Br        1 <0>        -0.0430
      9 N1         -4.9781   -1.8144   -6.8093 N.am      1 <0>        -0.6678
     10 C8         -4.3975   -1.0922   -5.8306 C.2       1 <0>         0.5184
     11 O1         -4.2473   -1.5752   -4.7282 O.2       1 <0>        -0.4879
     12 C9         -3.9348    0.3153   -6.1060 C.3       1 <0>         0.0527
     13 O2         -3.3479    0.8761   -4.9022 O.3       1 <0>        -0.3268
     14 C10        -2.8813    2.1376   -4.9796 C.2       1 <0>         0.5094
     15 O3         -2.9626    2.7522   -6.0243 O.2       1 <0>        -0.4754
     16 C11        -2.2712    2.7731   -3.7948 C.ar      1 <0>        -0.1405
     17 C12        -2.1760    2.0695   -2.5919 C.ar      1 <0>         0.0540
     18 C13        -1.6047    2.6688   -1.4894 C.ar      1 <0>        -0.6937
     19 C14        -1.1308    3.9669   -1.5701 C.ar      1 <0>         0.0267
     20 C15        -1.2159    4.6687   -2.7585 C.ar      1 <0>        -0.1410
     21 C16        -1.7858    4.0813   -3.8715 C.ar      1 <0>         0.0689
     22 Cl1        -1.8980    4.9655   -5.3612 Cl        1 <0>        -0.0081
     23 S1         -1.4840    1.7823    0.0286 S.o2      1 <0>         2.6974
     24 O4         -2.4960    0.7852   -0.0018 O.2       1 <0>        -0.9457
     25 O5         -1.4035    2.7548    1.0615 O.2       1 <0>        -0.9464
     26 N2         -0.0329    0.9844    0.0156 N.pl3     1 <0>        -1.1173
     27 C17         1.2202    1.7433    0.0098 C.3       1 <0>         0.0798
     28 H1         -7.4338   -7.3796   -6.1002 H         1 <0>         0.0748
     29 H2         -5.7825   -7.8798   -6.5376 H         1 <0>         0.0696
     30 H3         -6.1757   -7.4902   -4.8459 H         1 <0>         0.0712
     31 H4         -6.4379   -5.1880   -4.1294 H         1 <0>         0.1356
     32 H5         -5.8342   -2.8352   -4.5245 H         1 <0>         0.1504
     33 H6         -5.4969   -6.1214   -8.1836 H         1 <0>         0.1379
     34 H7         -5.1574   -1.4072   -7.6713 H         1 <0>         0.4158
     35 H8         -4.7854    0.9238   -6.4130 H         1 <0>         0.1118
     36 H9         -3.1902    0.3038   -6.9019 H         1 <0>         0.1124
     37 H10        -2.5495    1.0583   -2.5255 H         1 <0>         0.1680
     38 H11        -0.6886    4.4325   -0.7017 H         1 <0>         0.1605
     39 H12        -0.8404    5.6797   -2.8155 H         1 <0>         0.1581
     40 H13        -0.0127    0.0147    0.0078 H         1 <0>         0.4231
     41 H14         2.0632    1.0525   -0.0035 H         1 <0>         0.0873
     42 H15         1.2565    2.3780   -0.8756 H         1 <0>         0.0596
     43 H16         1.2732    2.3640    0.9043 H         1 <0>         0.0724
@<TRIPOS>BOND
     1    1    2 1
     2    1   28 1
     3    1   29 1
     4    1   30 1
     5    2    7 ar
     6    2    3 ar
     7    3    4 ar
     8    3   31 1
     9    4    5 ar
    10    4   32 1
    11    5    6 ar
    12    5    9 1
    13    6    7 ar
    14    6    8 1
    15    7   33 1
    16    9   10 am
    17    9   34 1
    18   10   11 2
    19   10   12 1
    20   12   13 1
    21   12   35 1
    22   12   36 1
    23   13   14 1
    24   14   15 2
    25   14   16 1
    26   16   21 ar
    27   16   17 ar
    28   17   18 ar
    29   17   37 1
    30   18   19 ar
    31   18   23 1
    32   19   20 ar
    33   19   38 1
    34   20   21 ar
    35   20   39 1
    36   21   22 1
    37   23   24 2
    38   23   25 2
    39   23   26 1
    40   26   27 1
    41   26   40 1
    42   27   41 1
    43   27   42 1
    44   27   43 1
@<TRIPOS>MOLECULE
ZINC17319924
   49    51     0     0     0
SMALL
USER_CHARGES
(5S)-N'-(2-bromo-4,5-dimethoxy-phenyl)sulfonyl-5-methyl-4,5,6,7-tetrahydrobenzothiophene-2-carbohydrazide
@<TRIPOS>ATOM
      1 C1         -0.7264    1.3297   -2.5795 C.3       1 <0>        -0.1491
      2 C2         -0.2910    1.1187   -1.1280 C.3       1 <0>        -0.0935
      3 H1         -0.4554    0.0777   -0.8500 H         1 <0>         0.0738
      4 C3          1.1970    1.4529   -0.9898 C.3       1 <0>        -0.1101
      5 C4          1.6823    0.9835    0.3892 C.3       1 <0>        -0.0470
      6 C5          0.7075    1.4603    1.4214 C.2       1 <0>        -0.1462
      7 C6         -0.5550    1.9356    1.2033 C.2       1 <0>        -0.1417
      8 C7         -1.2774    2.3217    2.3207 C.2       1 <0>        -0.0475
      9 C8         -0.6775    2.1992    3.5604 C.2       1 <0>        -0.2487
     10 S1          0.9204    1.5318    3.1283 S.3       1 <0>         0.1464
     11 C9         -1.2136    2.5315    4.8836 C.2       1 <0>         0.6083
     12 O1         -2.3385    2.9839    4.9884 O.2       1 <0>        -0.4938
     13 N1         -0.4606    2.3360    5.9842 N.am      1 <0>        -0.5063
     14 N2         -0.9729    2.6535    7.2489 N.pl3     1 <0>        -0.8905
     15 S2         -0.9986    1.5071    8.4436 S.o2      1 <0>         2.6895
     16 O2          0.3204    0.9863    8.5351 O.2       1 <0>        -0.9416
     17 O3         -1.6652    2.0922    9.5538 O.2       1 <0>        -0.9157
     18 C10        -2.0224    0.1890    7.8789 C.ar      1 <0>        -0.6580
     19 C11        -1.4778   -1.0635    7.6621 C.ar      1 <0>        -0.0737
     20 C12        -2.2814   -2.1010    7.2186 C.ar      1 <0>         0.0980
     21 C13        -3.6368   -1.8800    6.9920 C.ar      1 <0>         0.1679
     22 C14        -4.1768   -0.6233    7.2109 C.ar      1 <0>        -0.1680
     23 C15        -3.3701    0.4076    7.6590 C.ar      1 <0>         0.0133
     24 Br1        -4.1104    2.1206    7.9648 Br        1 <0>        -0.0040
     25 O4         -4.4293   -2.8956    6.5561 O.3       1 <0>        -0.2920
     26 C16        -5.8104   -2.5960    6.3450 C.3       1 <0>         0.0172
     27 O5         -1.7468   -3.3331    7.0045 O.3       1 <0>        -0.2976
     28 C17        -0.3488   -3.4867    7.2574 C.3       1 <0>         0.0167
     29 C18        -1.1159    2.0249   -0.2136 C.3       1 <0>        -0.0529
     30 H2         -0.1448    0.6782   -3.2317 H         1 <0>         0.0582
     31 H3         -1.7855    1.0921   -2.6793 H         1 <0>         0.0571
     32 H4         -0.5590    2.3692   -2.8616 H         1 <0>         0.0568
     33 H5          1.3396    2.5298   -1.0804 H         1 <0>         0.0701
     34 H6          1.7624    0.9426   -1.7695 H         1 <0>         0.0770
     35 H7          1.7348   -0.1051    0.4090 H         1 <0>         0.0898
     36 H8          2.6677    1.4022    0.5937 H         1 <0>         0.0874
     37 H9         -2.2817    2.7075    2.2260 H         1 <0>         0.1465
     38 H10         0.4360    1.9754    5.9007 H         1 <0>         0.4247
     39 H11        -1.3126    3.5449    7.4247 H         1 <0>         0.4341
     40 H12        -0.4260   -1.2329    7.8388 H         1 <0>         0.1641
     41 H13        -5.2283   -0.4493    7.0359 H         1 <0>         0.1564
     42 H14        -6.2560   -2.2577    7.2804 H         1 <0>         0.0630
     43 H15        -5.9013   -1.8109    5.5944 H         1 <0>         0.0625
     44 H16        -6.3276   -3.4910    5.9990 H         1 <0>         0.1107
     45 H17         0.2132   -2.8081    6.6157 H         1 <0>         0.0612
     46 H18        -0.1409   -3.2547    8.3019 H         1 <0>         0.0617
     47 H19        -0.0523   -4.5144    7.0475 H         1 <0>         0.1094
     48 H20        -1.0540    3.0542   -0.5669 H         1 <0>         0.0787
     49 H21        -2.1561    1.6990   -0.2182 H         1 <0>         0.0773
@<TRIPOS>BOND
     1    1    2 1
     2    1   30 1
     3    1   31 1
     4    1   32 1
     5    2    3 1
     6    2   29 1
     7    2    4 1
     8    4    5 1
     9    4   33 1
    10    4   34 1
    11    5    6 1
    12    5   35 1
    13    5   36 1
    14    6   10 1
    15    6    7 2
    16    7    8 1
    17    7   29 1
    18    8    9 2
    19    8   37 1
    20    9   10 1
    21    9   11 1
    22   11   12 2
    23   11   13 am
    24   13   14 1
    25   13   38 1
    26   14   15 1
    27   14   39 1
    28   15   16 2
    29   15   17 2
    30   15   18 1
    31   18   23 ar
    32   18   19 ar
    33   19   20 ar
    34   19   40 1
    35   20   21 ar
    36   20   27 1
    37   21   22 ar
    38   21   25 1
    39   22   23 ar
    40   22   41 1
    41   23   24 1
    42   25   26 1
    43   26   42 1
    44   26   43 1
    45   26   44 1
    46   27   28 1
    47   28   45 1
    48   28   46 1
    49   28   47 1
    50   29   48 1
    51   29   49 1
@<TRIPOS>MOLECULE
ZINC33939879
   61    66     0     0     0
SMALL
USER_CHARGES

@<TRIPOS>ATOM
      1 C1         -0.0802    1.4409    0.1377 C.ar      1 <0>        -0.1096
      2 C2          1.1046    2.1530    0.1307 C.ar      1 <0>        -0.1210
      3 C3          2.3132    1.4833    0.0907 C.ar      1 <0>        -0.0984
      4 C4          2.3371    0.1016    0.0581 C.ar      1 <0>        -0.1130
      5 C5          1.1523   -0.6106    0.0660 C.ar      1 <0>        -0.0997
      6 C6         -0.0564    0.0591    0.1047 C.ar      1 <0>        -0.1214
      7 C7          3.6547   -0.6285    0.0135 C.3       1 <0>         0.1648
      8 N1          4.1107   -0.8970    1.3796 N.am      1 <0>        -0.7173
      9 C8          5.2745   -1.5446    1.5865 C.2       1 <0>         0.5135
     10 O1          5.9442   -1.9050    0.6417 O.2       1 <0>        -0.5045
     11 C9          5.7435   -1.8209    2.9917 C.3       1 <0>         0.1610
     12 H1          4.9108   -2.1262    3.6254 H         1 <0>         0.1179
     13 C10         6.4442   -0.6289    3.5661 C.3       1 <0>         0.1029
     14 C11         7.4557   -0.0229    2.6106 C.2       1 <0>        -0.1547
     15 C12         7.9784    1.0132    3.2501 C.2       1 <0>        -0.1839
     16 C13         7.3194    0.9987    4.6350 C.3       1 <0>         0.1037
     17 H2          7.3464    1.9370    5.1891 H         1 <0>         0.1585
     18 O2          5.9674    0.4685    4.3087 O.3       1 <0>        -0.3074
     19 C14         8.0229   -0.2339    5.3246 C.3       1 <0>        -0.1081
     20 H3          7.8998   -0.1996    6.4071 H         1 <0>         0.1326
     21 C15         7.2247   -1.3860    4.7145 C.3       1 <0>        -0.1610
     22 H4          6.5041   -1.7537    5.4450 H         1 <0>         0.1316
     23 C16         7.7625   -2.5300    3.9564 C.2       1 <0>         0.5500
     24 O3          8.8259   -3.0830    4.1415 O.2       1 <0>        -0.4385
     25 N2          6.8285   -2.8518    3.0006 N.am      1 <0>        -0.5749
     26 C17         6.8835   -3.9716    2.1633 C.ar      1 <0>         0.1651
     27 C18         7.9059   -4.0942    1.2316 C.ar      1 <0>        -0.0838
     28 C19         7.9574   -5.2007    0.4066 C.ar      1 <0>        -0.1092
     29 C20         6.9923   -6.1858    0.5077 C.ar      1 <0>        -0.1183
     30 C21         5.9727   -6.0665    1.4342 C.ar      1 <0>        -0.1118
     31 C22         5.9191   -4.9655    2.2663 C.ar      1 <0>        -0.1263
     32 C23         9.4811   -0.3035    4.9508 C.2       1 <0>         0.5153
     33 O4          9.9093   -1.2701    4.3563 O.2       1 <0>        -0.4632
     34 N3         10.3094    0.7083    5.2770 N.am      1 <0>        -0.6678
     35 C24        11.6449    0.6835    4.8561 C.ar      1 <0>         0.1197
     36 C25        12.2676   -0.5279    4.5886 C.ar      1 <0>        -0.1090
     37 C26        13.5849   -0.5494    4.1731 C.ar      1 <0>        -0.1072
     38 C27        14.2846    0.6339    4.0236 C.ar      1 <0>        -0.1098
     39 C28        13.6690    1.8431    4.2893 C.ar      1 <0>        -0.1340
     40 C29        12.3485    1.8726    4.6997 C.ar      1 <0>         0.0630
     41 F1         11.7452    3.0543    4.9540 F         1 <0>        -0.1395
     42 H5         -1.0244    1.9639    0.1735 H         1 <0>         0.1242
     43 H6          1.0859    3.2325    0.1561 H         1 <0>         0.1250
     44 H7          3.2389    2.0397    0.0845 H         1 <0>         0.1237
     45 H8          1.1710   -1.6901    0.0403 H         1 <0>         0.1241
     46 H9         -0.9820   -0.4972    0.1105 H         1 <0>         0.1251
     47 H10         3.5301   -1.5709   -0.5198 H         1 <0>         0.0795
     48 H11         4.3931   -0.0142   -0.5019 H         1 <0>         0.0781
     49 H12         3.5751   -0.6088    2.1351 H         1 <0>         0.4044
     50 H13         7.6995   -0.3655    1.6158 H         1 <0>         0.1551
     51 H14         8.7099    1.7149    2.8775 H         1 <0>         0.1571
     52 H15         8.6598   -3.3249    1.1518 H         1 <0>         0.1205
     53 H16         8.7521   -5.2964   -0.3185 H         1 <0>         0.1252
     54 H17         7.0348   -7.0501   -0.1385 H         1 <0>         0.1239
     55 H18         5.2202   -6.8375    1.5105 H         1 <0>         0.1254
     56 H19         5.1254   -4.8754    2.9932 H         1 <0>         0.1204
     57 H20         9.9806    1.4538    5.8034 H         1 <0>         0.4117
     58 H21        11.7227   -1.4530    4.7055 H         1 <0>         0.1652
     59 H22        14.0691   -1.4921    3.9649 H         1 <0>         0.1330
     60 H23        15.3144    0.6135    3.6989 H         1 <0>         0.1335
     61 H24        14.2183    2.7656    4.1719 H         1 <0>         0.1387
@<TRIPOS>BOND
     1    1    6 ar
     2    1    2 ar
     3    1   42 1
     4    2    3 ar
     5    2   43 1
     6    3    4 ar
     7    3   44 1
     8    4    5 ar
     9    4    7 1
    10    5    6 ar
    11    5   45 1
    12    6   46 1
    13    7    8 1
    14    7   47 1
    15    7   48 1
    16    8    9 am
    17    8   49 1
    18    9   10 2
    19    9   11 1
    20   11   12 1
    21   11   25 1
    22   11   13 1
    23   13   18 1
    24   13   21 1
    25   13   14 1
    26   14   15 2
    27   14   50 1
    28   15   16 1
    29   15   51 1
    30   16   17 1
    31   16   18 1
    32   16   19 1
    33   19   20 1
    34   19   21 1
    35   19   32 1
    36   21   22 1
    37   21   23 1
    38   23   24 2
    39   23   25 am
    40   25   26 1
    41   26   31 ar
    42   26   27 ar
    43   27   28 ar
    44   27   52 1
    45   28   29 ar
    46   28   53 1
    47   29   30 ar
    48   29   54 1
    49   30   31 ar
    50   30   55 1
    51   31   56 1
    52   32   33 2
    53   32   34 am
    54   34   35 1
    55   34   57 1
    56   35   40 ar
    57   35   36 ar
    58   36   37 ar
    59   36   58 1
    60   37   38 ar
    61   37   59 1
    62   38   39 ar
    63   38   60 1
    64   39   40 ar
    65   39   61 1
    66   40   41 1
@<TRIPOS>MOLECULE
ZINC01814477
   59    63     0     0     0
SMALL
USER_CHARGES

@<TRIPOS>ATOM
      1 C1         -0.3394    1.7753    0.7775 C.3       1 <0>        -0.1177
      2 C2         -0.2782    0.2735    0.6685 C.ar      1 <0>        -0.0455
      3 C3         -0.2644   -0.3288   -0.5762 C.ar      1 <0>        -0.1544
      4 C4         -0.2083   -1.7062   -0.6796 C.ar      1 <0>        -0.0747
      5 C5         -0.1662   -2.4846    0.4612 C.ar      1 <0>        -0.2116
      6 C6         -0.1798   -1.8829    1.7109 C.ar      1 <0>         0.1307
      7 C7         -0.2301   -0.4999    1.8119 C.ar      1 <0>        -0.1505
      8 O1         -0.1385   -2.6464    2.8344 O.3       1 <0>        -0.3117
      9 C8         -0.0818   -4.0629    2.6545 C.3       1 <0>         0.0451
     10 C9         -0.0414   -4.7493    4.0213 C.3       1 <0>         0.1045
     11 N1          0.0167   -6.2015    3.8368 N.pl3     1 <0>        -0.4485
     12 C10        -1.0556   -7.0175    3.8403 C.2       1 <0>         0.1365
     13 C11        -0.6453   -8.3215    3.6394 C.2       1 <0>        -0.2302
     14 C12         0.8242   -8.2731    3.5026 C.ar      1 <0>        -0.0633
     15 C13         1.1770   -6.9204    3.6298 C.ar      1 <0>         0.0783
     16 C14         2.5159   -6.5545    3.5386 C.ar      1 <0>        -0.1150
     17 C15         3.4790   -7.5165    3.3220 C.ar      1 <0>        -0.0977
     18 C16         3.1275   -8.8517    3.1934 C.ar      1 <0>        -0.1225
     19 C17         1.8065   -9.2348    3.2885 C.ar      1 <0>        -0.0793
     20 C18        -1.4665   -9.4702    3.5781 C.2       1 <0>         0.1299
     21 C19        -2.7854   -9.3567    3.1787 C.2       1 <0>        -0.3046
     22 C20        -3.3305   -8.0886    2.6211 C.2       1 <0>         0.4634
     23 N2         -2.6231   -7.2594    1.8989 N.2       1 <0>        -0.7000
     24 N3         -4.6848   -7.8699    2.9476 N.pl3     1 <0>        -0.3619
     25 N4         -5.3003   -6.6348    2.9765 N.pl3     1 <0>        -0.5474
     26 H1         -4.7889   -5.8236    2.8306 H         1 <0>         0.4361
     27 C21        -6.6741   -6.5765    3.2196 C.2       1 <0>         0.0974
     28 C22        -7.4730   -5.5135    3.2575 C.2       1 <0>        -0.1394
     29 C23        -6.9080   -4.1373    3.0168 C.3       1 <0>        -0.1016
     30 C24        -8.9431   -5.6854    3.5412 C.3       1 <0>        -0.1000
     31 S1         -7.0817   -8.2984    3.4665 S.3       1 <0>         0.1271
     32 C25        -5.4558   -8.9740    3.2566 C.2       1 <0>         0.4418
     33 N5         -5.0508  -10.2102    3.3824 N.2       1 <0>        -0.5429
     34 C26        -3.7314  -10.4917    3.2764 C.2       1 <0>         0.5517
     35 O2         -3.3317  -11.6443    3.2660 O.2       1 <0>        -0.4549
     36 H2          0.6725    2.1803    0.7897 H         1 <0>         0.0753
     37 H3         -0.8824    2.1798   -0.0767 H         1 <0>         0.0710
     38 H4         -0.8526    2.0521    1.6985 H         1 <0>         0.0697
     39 H5         -0.2980    0.2779   -1.4691 H         1 <0>         0.1258
     40 H6         -0.1977   -2.1743   -1.6528 H         1 <0>         0.1264
     41 H7         -0.1230   -3.5607    0.3799 H         1 <0>         0.1247
     42 H8         -0.2360   -0.0289    2.7837 H         1 <0>         0.1312
     43 H9         -0.9637   -4.3951    2.1069 H         1 <0>         0.0749
     44 H10         0.8146   -4.3220    2.0911 H         1 <0>         0.0710
     45 H11         0.8406   -4.4171    4.5688 H         1 <0>         0.1081
     46 H12        -0.9378   -4.4902    4.5846 H         1 <0>         0.1081
     47 H13        -2.0788   -6.7008    3.9791 H         1 <0>         0.1771
     48 H14         2.8006   -5.5174    3.6370 H         1 <0>         0.1237
     49 H15         4.5172   -7.2276    3.2516 H         1 <0>         0.1319
     50 H16         3.8923   -9.5953    3.0239 H         1 <0>         0.1311
     51 H17         1.5345  -10.2750    3.1865 H         1 <0>         0.1302
     52 H18        -1.0638  -10.4367    3.8433 H         1 <0>         0.1566
     53 H19        -1.7221   -7.4974    1.6300 H         1 <0>         0.3725
     54 H20        -6.4622   -4.0963    2.0230 H         1 <0>         0.0655
     55 H21        -7.7069   -3.3991    3.0874 H         1 <0>         0.0765
     56 H22        -6.1463   -3.9211    3.7660 H         1 <0>         0.0639
     57 H23        -9.1151   -5.6258    4.6159 H         1 <0>         0.0758
     58 H24        -9.5046   -4.8976    3.0390 H         1 <0>         0.0781
     59 H25        -9.2727   -6.6573    3.1739 H         1 <0>         0.0636
@<TRIPOS>BOND
     1    1    2 1
     2    1   36 1
     3    1   37 1
     4    1   38 1
     5    2    7 ar
     6    2    3 ar
     7    3    4 ar
     8    3   39 1
     9    4    5 ar
    10    4   40 1
    11    5    6 ar
    12    5   41 1
    13    6    7 ar
    14    6    8 1
    15    7   42 1
    16    8    9 1
    17    9   10 1
    18    9   43 1
    19    9   44 1
    20   10   11 1
    21   10   45 1
    22   10   46 1
    23   11   15 1
    24   11   12 1
    25   12   13 2
    26   12   47 1
    27   13   14 1
    28   13   20 1
    29   14   19 ar
    30   14   15 ar
    31   15   16 ar
    32   16   17 ar
    33   16   48 1
    34   17   18 ar
    35   17   49 1
    36   18   19 ar
    37   18   50 1
    38   19   51 1
    39   20   21 2
    40   20   52 1
    41   21   34 1
    42   21   22 1
    43   22   23 2
    44   22   24 1
    45   23   53 1
    46   24   32 1
    47   24   25 1
    48   25   26 1
    49   25   27 1
    50   27   28 2
    51   27   31 1
    52   28   29 1
    53   28   30 1
    54   29   54 1
    55   29   55 1
    56   29   56 1
    57   30   57 1
    58   30   58 1
    59   30   59 1
    60   31   32 1
    61   32   33 2
    62   33   34 1
    63   34   35 2
@<TRIPOS>MOLECULE
ZINC02498679
   39    42     0     0     0
SMALL
USER_CHARGES
(2,5-difluorophenyl)-methyl-nitro-BLAHone
@<TRIPOS>ATOM
      1 C1          1.9118    0.3852   -2.2937 C.3       1 <0>        -0.1455
      2 C2          3.0094    0.7666   -1.2985 C.3       1 <0>         0.3280
      3 C3          3.9579   -0.4266   -1.1137 C.3       1 <0>        -0.1674
      4 C4          4.9582   -0.0349   -0.0140 C.3       1 <0>         0.1852
      5 H1          5.7116   -0.8081    0.1368 H         1 <0>         0.1350
      6 C5          5.6005    1.2775   -0.4038 C.ar      1 <0>        -0.1946
      7 C6          6.8377    1.6006    0.1239 C.ar      1 <0>         0.0031
      8 C7          7.4386    2.8019   -0.2005 C.ar      1 <0>        -0.0792
      9 C8          6.8020    3.6832   -1.0552 C.ar      1 <0>        -0.0117
     10 C9          5.5701    3.3623   -1.5871 C.ar      1 <0>        -0.1419
     11 C10         4.9627    2.1519   -1.2653 C.ar      1 <0>         0.2036
     12 O1          3.7539    1.8667   -1.8140 O.3       1 <0>        -0.2984
     13 N1          8.7619    3.1453    0.3666 N.pl3     1 <0>         0.0332
     14 O2          9.2907    4.2046    0.0805 O.2       1 <0>        -0.1582
     15 O3          9.3220    2.3687    1.1193 O.3       1 <0>        -0.1612
     16 N2          4.1912    0.2011    1.2204 N.am      1 <0>        -0.7252
     17 C11         2.9844    0.7879    1.1529 C.2       1 <0>         0.7154
     18 O4          2.3955    1.0362    2.1873 O.2       1 <0>        -0.5597
     19 N3          2.4029    1.1051   -0.0140 N.am      1 <0>        -0.5768
     20 C12         1.1793    1.7867    0.0004 C.ar      1 <0>         0.1434
     21 C13        -0.0126    1.0758    0.0080 C.ar      1 <0>        -0.1121
     22 C14        -1.2196    1.7519    0.0173 C.ar      1 <0>         0.1000
     23 C15        -1.2389    3.1367    0.0293 C.ar      1 <0>        -0.1127
     24 C16        -0.0530    3.8473    0.0223 C.ar      1 <0>        -0.1179
     25 C17         1.1565    3.1769    0.0076 C.ar      1 <0>         0.1054
     26 F1          2.3149    3.8721    0.0007 F         1 <0>        -0.1248
     27 F2         -2.3803    1.0607    0.0191 F         1 <0>        -0.1279
     28 H2          1.2304    1.2261   -2.4231 H         1 <0>         0.0809
     29 H3          2.3631    0.1323   -3.2531 H         1 <0>         0.0926
     30 H4          1.3597   -0.4746   -1.9140 H         1 <0>         0.0934
     31 H5          3.3932   -1.3071   -0.8071 H         1 <0>         0.1133
     32 H6          4.4881   -0.6285   -2.0444 H         1 <0>         0.1201
     33 H7          7.3352    0.9123    0.7911 H         1 <0>         0.1587
     34 H8          7.2695    4.6238   -1.3063 H         1 <0>         0.1634
     35 H9          5.0755    4.0522   -2.2548 H         1 <0>         0.1585
     36 H10         4.5574   -0.0628    2.0790 H         1 <0>         0.4259
     37 H11         0.0021   -0.0041    0.0020 H         1 <0>         0.1488
     38 H12        -2.1822    3.6624    0.0400 H         1 <0>         0.1532
     39 H13        -0.0712    4.9272    0.0279 H         1 <0>         0.1541
@<TRIPOS>BOND
     1    1    2 1
     2    1   28 1
     3    1   29 1
     4    1   30 1
     5    2   12 1
     6    2   19 1
     7    2    3 1
     8    3    4 1
     9    3   31 1
    10    3   32 1
    11    4    5 1
    12    4    6 1
    13    4   16 1
    14    6   11 ar
    15    6    7 ar
    16    7    8 ar
    17    7   33 1
    18    8    9 ar
    19    8   13 1
    20    9   10 ar
    21    9   34 1
    22   10   11 ar
    23   10   35 1
    24   11   12 1
    25   13   14 2
    26   13   15 1
    27   16   17 am
    28   16   36 1
    29   17   18 2
    30   17   19 am
    31   19   20 1
    32   20   25 ar
    33   20   21 ar
    34   21   22 ar
    35   21   37 1
    36   22   23 ar
    37   22   27 1
    38   23   24 ar
    39   23   38 1
    40   24   25 ar
    41   24   39 1
    42   25   26 1
@<TRIPOS>MOLECULE
ZINC09109330
   39    41     0     0     0
SMALL
USER_CHARGES
3-(4-chlorophenyl)-5-[1-(2-furylmethylamino)ethylidene]-6-hydroxy-pyrimidine-2,4-dione
@<TRIPOS>ATOM
      1 C1         -2.5736    7.4057   -0.5674 C.3       1 <0>        -0.1518
      2 C2         -1.9464    6.8128   -1.8027 C.2       1 <0>         0.1469
      3 C3         -2.6798    6.7191   -2.9759 C.3       1 <0>        -0.0998
      4 C4         -4.0236    7.3017   -3.0895 C.2       1 <0>         0.4706
      5 N1         -4.6706    7.1773   -4.2369 N.2       1 <0>        -0.5939
      6 C5         -4.1415    6.5447   -5.2804 C.2       1 <0>         0.6772
      7 O1         -4.7992    6.4708   -6.3034 O.2       1 <0>        -0.4726
      8 N2         -2.9237    5.9833   -5.2675 N.am      1 <0>        -0.5424
      9 C6         -2.1435    6.0358   -4.1667 C.2       1 <0>         0.5512
     10 O2         -1.0360    5.5310   -4.1563 O.2       1 <0>        -0.4087
     11 C7         -2.4503    5.3370   -6.4177 C.ar      1 <0>         0.1275
     12 C8         -1.7385    6.0502   -7.3728 C.ar      1 <0>        -0.0788
     13 C9         -1.2682    5.4099   -8.5026 C.ar      1 <0>        -0.0993
     14 C10        -1.5153    4.0610   -8.6882 C.ar      1 <0>        -0.0206
     15 C11        -2.2298    3.3494   -7.7405 C.ar      1 <0>        -0.0998
     16 C12        -2.6973    3.9839   -6.6064 C.ar      1 <0>        -0.0811
     17 Cl1        -0.9285    3.2605  -10.1124 Cl        1 <0>        -0.0585
     18 O3         -4.5853    7.9495   -2.0473 O.3       1 <0>        -0.4251
     19 N3         -0.6743    6.3741   -1.7674 N.2       1 <0>        -0.4594
     20 C13         0.1005    6.4731   -0.5280 C.3       1 <0>         0.1110
     21 C14         1.4827    5.9169   -0.7539 C.2       1 <0>        -0.0027
     22 C15         2.5540    6.6164   -1.1695 C.2       1 <0>        -0.1892
     23 C16         3.6332    5.7062   -1.2455 C.2       1 <0>        -0.2146
     24 C17         3.1569    4.5050   -0.8717 C.2       1 <0>        -0.0337
     25 O4          1.8525    4.6375   -0.5807 O.3       1 <0>        -0.1739
     26 H1         -1.8930    7.4488    0.1641 H         1 <0>         0.0744
     27 H2         -2.9329    8.4107   -0.7888 H         1 <0>         0.1045
     28 H3         -3.4096    6.7827   -0.2496 H         1 <0>         0.0902
     29 H4         -1.5493    7.1040   -7.2306 H         1 <0>         0.1364
     30 H5         -0.7109    5.9634   -9.2439 H         1 <0>         0.1443
     31 H6         -2.4217    2.2968   -7.8878 H         1 <0>         0.1439
     32 H7         -3.2549    3.4281   -5.8671 H         1 <0>         0.1345
     33 H8         -5.4705    8.2937   -2.2289 H         1 <0>         0.4327
     34 H9         -3.1762    6.0613   -2.4095 H         1 <0>         0.1658
     35 H10        -0.3964    5.9038    0.2576 H         1 <0>         0.0890
     36 H11         0.1741    7.5184   -0.2280 H         1 <0>         0.1068
     37 H12         2.5839    7.6709   -1.4005 H         1 <0>         0.1461
     38 H13         4.6458    5.9321   -1.5454 H         1 <0>         0.1493
     39 H14         3.7259    3.5885   -0.8191 H         1 <0>         0.2035
@<TRIPOS>BOND
     1    1   27 1
     2    1   28 1
     3    1    2 1
     4    1   26 1
     5    2    3 1
     6    2   19 2
     7    3    9 1
     8    3    4 1
     9    3   34 1
    10    4    5 2
    11    4   18 1
    12    5    6 1
    13    6    7 2
    14    6    8 am
    15    8    9 am
    16    8   11 1
    17    9   10 2
    18   11   16 ar
    19   11   12 ar
    20   12   13 ar
    21   12   29 1
    22   13   14 ar
    23   13   30 1
    24   14   15 ar
    25   14   17 1
    26   15   16 ar
    27   15   31 1
    28   16   32 1
    29   18   33 1
    30   19   20 1
    31   20   21 1
    32   20   35 1
    33   20   36 1
    34   21   25 1
    35   21   22 2
    36   22   23 1
    37   22   37 1
    38   23   24 2
    39   23   38 1
    40   24   25 1
    41   24   39 1
@<TRIPOS>MOLECULE
ZINC13570390
   46    49     0     0     0
SMALL
USER_CHARGES
(5Z)-1-(4-fluorophenyl)-2-hydroxy-5-[[5-(1-piperidyl)-2-furyl]methylene]pyrimidine-4,6-dione
@<TRIPOS>ATOM
      1 C1         -4.7089    6.8332   -0.6447 C.ar      1 <0>        -0.0619
      2 C2         -4.4833    8.1957   -0.6283 C.ar      1 <0>        -0.1435
      3 C3         -3.6054    8.7419    0.2929 C.ar      1 <0>         0.1198
      4 C4         -2.9562    7.9242    1.2026 C.ar      1 <0>        -0.1431
      5 C5         -3.1833    6.5619    1.1927 C.ar      1 <0>        -0.0621
      6 C6         -4.0630    6.0125    0.2699 C.ar      1 <0>         0.0939
      7 N1         -4.2945    4.6296    0.2580 N.am      1 <0>        -0.5031
      8 C7         -3.5242    3.8367   -0.5145 C.2       1 <0>         0.5759
      9 O1         -2.6339    4.3086   -1.1989 O.2       1 <0>        -0.4637
     10 C8         -3.7791    2.4357   -0.5158 C.2       1 <0>        -0.3360
     11 C9         -3.0200    1.5611   -1.2985 C.2       1 <0>         0.1652
     12 C10        -2.1236    2.0668   -2.2388 C.2       1 <0>        -0.0835
     13 C11        -0.8590    1.5548   -2.5223 C.2       1 <0>        -0.0825
     14 C12        -0.3174    2.3554   -3.5201 C.2       1 <0>        -0.2476
     15 C13        -1.2530    3.3290   -3.8140 C.2       1 <0>         0.2455
     16 O2         -2.3281    3.1424   -3.0341 O.3       1 <0>        -0.1434
     17 N2         -1.1061    4.3240   -4.7501 N.pl3     1 <0>        -0.4395
     18 C14         0.1062    5.1123   -4.4943 C.3       1 <0>         0.0579
     19 C15         0.3154    6.1129   -5.6332 C.3       1 <0>        -0.1188
     20 C16        -0.9043    7.0337   -5.7276 C.3       1 <0>        -0.1263
     21 C17        -2.1595    6.1844   -5.9458 C.3       1 <0>        -0.1184
     22 C18        -2.2970    5.1818   -4.7978 C.3       1 <0>         0.0468
     23 C19        -4.8686    1.9422    0.3430 C.2       1 <0>         0.5594
     24 O3         -5.1349    0.7523    0.3907 O.2       1 <0>        -0.4707
     25 N3         -5.5638    2.8315    1.0730 N.2       1 <0>        -0.6388
     26 C20        -5.2881    4.1126    1.0304 C.2       1 <0>         0.6555
     27 O4         -6.0210    4.9547    1.7857 O.3       1 <0>        -0.4523
     28 F1         -3.3817   10.0742    0.3039 F         1 <0>        -0.1311
     29 H1         -5.3905    6.4070   -1.3660 H         1 <0>         0.1368
     30 H2         -4.9889    8.8350   -1.3368 H         1 <0>         0.1467
     31 H3         -2.2716    8.3520    1.9201 H         1 <0>         0.1470
     32 H4         -2.6765    5.9245    1.9021 H         1 <0>         0.1375
     33 H5         -3.1278    0.4937   -1.1748 H         1 <0>         0.1773
     34 H6         -0.3919    0.6983   -2.0591 H         1 <0>         0.1646
     35 H7          0.6527    2.2386   -3.9802 H         1 <0>         0.1594
     36 H8         -0.0028    5.6510   -3.5531 H         1 <0>         0.0545
     37 H9          0.9666    4.4459   -4.4337 H         1 <0>         0.0904
     38 H10         0.4383    5.5742   -6.5729 H         1 <0>         0.0774
     39 H11         1.2067    6.7085   -5.4360 H         1 <0>         0.0795
     40 H12        -0.7787    7.7199   -6.5651 H         1 <0>         0.0724
     41 H13        -1.0047    7.6012   -4.8024 H         1 <0>         0.0630
     42 H14        -2.0756    5.6469   -6.8903 H         1 <0>         0.0757
     43 H15        -3.0369    6.8307   -5.9715 H         1 <0>         0.0761
     44 H16        -3.1820    4.5659   -4.9575 H         1 <0>         0.0837
     45 H17        -2.3947    5.7203   -3.8552 H         1 <0>         0.0580
     46 H18        -6.7209    4.5634    2.3262 H         1 <0>         0.4464
@<TRIPOS>BOND
     1    1    6 ar
     2    1    2 ar
     3    1   29 1
     4    2    3 ar
     5    2   30 1
     6    3    4 ar
     7    3   28 1
     8    4    5 ar
     9    4   31 1
    10    5    6 ar
    11    5   32 1
    12    6    7 1
    13    7   26 1
    14    7    8 am
    15    8    9 2
    16    8   10 1
    17   10   11 2
    18   10   23 1
    19   11   12 1
    20   11   33 1
    21   12   16 1
    22   12   13 2
    23   13   14 1
    24   13   34 1
    25   14   15 2
    26   14   35 1
    27   15   16 1
    28   15   17 1
    29   17   22 1
    30   17   18 1
    31   18   19 1
    32   18   36 1
    33   18   37 1
    34   19   20 1
    35   19   38 1
    36   19   39 1
    37   20   21 1
    38   20   40 1
    39   20   41 1
    40   21   22 1
    41   21   42 1
    42   21   43 1
    43   22   44 1
    44   22   45 1
    45   23   24 2
    46   23   25 1
    47   25   26 2
    48   26   27 1
    49   27   46 1
@<TRIPOS>MOLECULE
ZINC32117681
   46    50     0     0     0
SMALL
USER_CHARGES
2-(3,5-dimethyl-1H-pyrazol-4-yl)ethyl-dimethyl-BLAH
@<TRIPOS>ATOM
      1 C1          6.2384   -2.5837   -0.0756 C.3       1 <0>        -0.1194
      2 C2          5.1311   -3.6059   -0.0699 C.ar      1 <0>         0.0370
      3 C3          5.4217   -4.9521   -0.0810 C.ar      1 <0>        -0.1854
      4 C4          4.4002   -5.8878   -0.0766 C.ar      1 <0>         0.1869
      5 N1          3.1391   -5.4997   -0.0613 N.ar      1 <0>        -0.4529
      6 C5          2.8149   -4.2245   -0.0498 C.ar      1 <0>         0.1156
      7 C6          3.7775   -3.1982   -0.0535 C.ar      1 <0>        -0.1454
      8 C7          3.2533   -1.8198   -0.0402 C.2       1 <0>         0.1649
      9 C8          1.8657   -1.6960   -0.0253 C.2       1 <0>        -0.1759
     10 S1          1.2624   -3.3622   -0.0292 S.3       1 <0>         0.2096
     11 C9          1.2535   -0.4351   -0.0122 C.2       1 <0>         0.3496
     12 N2          0.0021   -0.0041    0.0020 N.2       1 <0>        -0.5187
     13 C10        -0.0159    1.3226    0.0093 C.2       1 <0>         0.2765
     14 N3          1.2136    1.7805    0.0000 N.2       1 <0>        -0.3051
     15 N4          2.0660    0.6711   -0.0141 N.pl3     1 <0>        -0.3314
     16 C11         3.4138    0.5060   -0.0285 C.2       1 <0>         0.3825
     17 N5          3.9736   -0.6630   -0.0408 N.2       1 <0>        -0.4649
     18 C12        -1.2594    2.1739    0.0201 C.3       1 <0>        -0.0257
     19 C13        -1.6730    2.4542    1.4662 C.3       1 <0>        -0.0294
     20 C14        -2.9165    3.3055    1.4770 C.2       1 <0>        -0.2438
     21 C15        -4.1915    2.8525    1.4808 C.2       1 <0>         0.0868
     22 N6         -5.0094    3.9258    1.4906 N.pl3     1 <0>        -0.4845
     23 H1         -6.1005    3.7858    1.4952 H         1 <0>         0.4669
     24 N7         -4.2106    5.0766    1.4929 N.2       1 <0>        -0.2839
     25 C16        -2.9565    4.7036    1.4908 C.2       1 <0>         0.0810
     26 C17        -1.7615    5.6218    1.4977 C.3       1 <0>        -0.0782
     27 C18        -4.6212    1.4080    1.4746 C.3       1 <0>        -0.0970
     28 C19         4.7312   -7.3579   -0.0889 C.3       1 <0>        -0.1131
     29 H2          7.2112   -3.0970   -0.0886 H         1 <0>         0.0736
     30 H3          6.1654   -1.9591    0.8269 H         1 <0>         0.0871
     31 H4          6.1468   -1.9489   -0.9692 H         1 <0>         0.0870
     32 H5          6.4507   -5.2797   -0.0936 H         1 <0>         0.1494
     33 H6          4.0439    1.3831   -0.0294 H         1 <0>         0.2212
     34 H7         -1.0571    3.1249   -0.4943 H         1 <0>         0.0963
     35 H8         -2.0719    1.6427   -0.4973 H         1 <0>         0.0983
     36 H9         -1.8752    1.5032    1.9806 H         1 <0>         0.0738
     37 H10        -0.8605    2.9854    1.9836 H         1 <0>         0.0742
     38 H11        -2.1027    6.6675    1.5086 H         1 <0>         0.0727
     39 H12        -1.1564    5.4428    0.5967 H         1 <0>         0.0795
     40 H13        -1.1532    5.4252    2.3929 H         1 <0>         0.0785
     41 H14        -5.7198    1.3522    1.4798 H         1 <0>         0.0695
     42 H15        -4.2242    0.9035    2.3679 H         1 <0>         0.0854
     43 H16        -4.2332    0.9139    0.5716 H         1 <0>         0.0872
     44 H17         3.8000   -7.9434   -0.0832 H         1 <0>         0.0854
     45 H18         5.3265   -7.6072    0.8019 H         1 <0>         0.0893
     46 H19         5.3087   -7.5961   -0.9943 H         1 <0>         0.0892
@<TRIPOS>BOND
     1    1    2 1
     2    1   29 1
     3    1   30 1
     4    1   31 1
     5    2    7 ar
     6    2    3 ar
     7    3    4 ar
     8    3   32 1
     9    4    5 ar
    10    4   28 1
    11    5    6 ar
    12    6   10 1
    13    6    7 ar
    14    7    8 1
    15    8   17 1
    16    8    9 2
    17    9   10 1
    18    9   11 1
    19   11   15 1
    20   11   12 2
    21   12   13 1
    22   13   14 2
    23   13   18 1
    24   14   15 1
    25   15   16 1
    26   16   17 2
    27   16   33 1
    28   18   19 1
    29   18   34 1
    30   18   35 1
    31   19   20 1
    32   19   36 1
    33   19   37 1
    34   20   25 1
    35   20   21 2
    36   21   22 1
    37   21   27 1
    38   22   23 1
    39   22   24 1
    40   24   25 2
    41   25   26 1
    42   26   38 1
    43   26   39 1
    44   26   40 1
    45   27   41 1
    46   27   42 1
    47   27   43 1
    48   28   44 1
    49   28   45 1
    50   28   46 1
@<TRIPOS>MOLECULE
ZINC46797818
   41    43     0     0     0
SMALL
USER_CHARGES

@<TRIPOS>ATOM
      1 C1         -0.8339    2.1362    0.4474 C.3       1 <0>        -0.0893
      2 C2         -0.6411    0.6683    0.1661 C.2       1 <0>         0.0809
      3 C3         -1.6076   -0.2667    0.1574 C.2       1 <0>        -0.2879
      4 C4         -1.0116   -1.5106   -0.1492 C.2       1 <0>         0.3322
      5 N1          0.2707   -1.3114   -0.3162 N.2       1 <0>        -0.3523
      6 O1          0.5240    0.0688   -0.1249 O.3       1 <0>        -0.0696
      7 N2         -1.6732   -2.7342   -0.2552 N.am      1 <0>        -0.6330
      8 C5         -3.0048   -2.7996   -0.0576 C.2       1 <0>         0.5074
      9 O2         -3.6279   -1.7948    0.2123 O.2       1 <0>        -0.4907
     10 C6         -3.7194   -4.1215   -0.1721 C.3       1 <0>         0.1055
     11 N3         -5.1486   -3.9278    0.0852 N.am      1 <0>        -0.5932
     12 C7         -6.0570   -3.6192   -1.0220 C.3       1 <0>         0.0781
     13 C8         -5.6277   -4.0335    1.3405 C.2       1 <0>         0.6100
     14 O3         -4.8622   -4.1935    2.2723 O.2       1 <0>        -0.5034
     15 C9         -7.0752   -3.9556    1.5836 C.2       1 <0>        -0.0358
     16 C10        -7.6613   -3.9242    2.8083 C.2       1 <0>        -0.0625
     17 C11        -9.1016   -3.8466    2.5662 C.ar      1 <0>        -0.1333
     18 C12       -10.2259   -3.7862    3.3932 C.ar      1 <0>        -0.0466
     19 C13       -11.4730   -3.7190    2.8371 C.ar      1 <0>        -0.0536
     20 C14       -11.6280   -3.7111    1.4564 C.ar      1 <0>        -0.0720
     21 C15       -10.5314   -3.7700    0.6244 C.ar      1 <0>        -0.0959
     22 C16        -9.2532   -3.8384    1.1672 C.ar      1 <0>         0.0746
     23 O4         -8.0219   -3.8988    0.6237 O.3       1 <0>        -0.1742
     24 Cl1       -12.8718   -3.6438    3.8625 Cl        1 <0>        -0.0569
     25 C17        -6.9681   -3.9623    4.1459 C.3       1 <0>        -0.1007
     26 H1          0.1260    2.6482    0.3795 H         1 <0>         0.0867
     27 H2         -1.5235    2.5587   -0.2834 H         1 <0>         0.0974
     28 H3         -1.2435    2.2634    1.4494 H         1 <0>         0.0976
     29 H4         -2.6563   -0.0966    0.3513 H         1 <0>         0.1804
     30 H5         -1.1748   -3.5379   -0.4711 H         1 <0>         0.4238
     31 H6         -3.5822   -4.5230   -1.1761 H         1 <0>         0.1260
     32 H7         -3.3103   -4.8201    0.5577 H         1 <0>         0.1280
     33 H8         -6.5164   -4.5396   -1.3824 H         1 <0>         0.0689
     34 H9         -6.8334   -2.9370   -0.6756 H         1 <0>         0.0847
     35 H10        -5.4970   -3.1513   -1.8317 H         1 <0>         0.0791
     36 H11       -10.1105   -3.7928    4.4670 H         1 <0>         0.1426
     37 H12       -12.6192   -3.6584    1.0306 H         1 <0>         0.1501
     38 H13       -10.6643   -3.7636   -0.4474 H         1 <0>         0.1472
     39 H14        -6.7456   -2.9453    4.4689 H         1 <0>         0.0812
     40 H15        -7.6175   -4.4422    4.8781 H         1 <0>         0.0736
     41 H16        -6.0399   -4.5270    4.0581 H         1 <0>         0.0951
@<TRIPOS>BOND
     1    1    2 1
     2    1   26 1
     3    1   27 1
     4    1   28 1
     5    2    6 1
     6    2    3 2
     7    3    4 1
     8    3   29 1
     9    4    5 2
    10    4    7 1
    11    5    6 1
    12    7    8 am
    13    7   30 1
    14    8    9 2
    15    8   10 1
    16   10   11 1
    17   10   31 1
    18   10   32 1
    19   11   12 1
    20   11   13 am
    21   12   33 1
    22   12   34 1
    23   12   35 1
    24   13   14 2
    25   13   15 1
    26   15   23 1
    27   15   16 2
    28   16   17 1
    29   16   25 1
    30   17   22 ar
    31   17   18 ar
    32   18   19 ar
    33   18   36 1
    34   19   20 ar
    35   19   24 1
    36   20   21 ar
    37   20   37 1
    38   21   22 ar
    39   21   38 1
    40   22   23 1
    41   25   39 1
    42   25   40 1
    43   25   41 1
@<TRIPOS>MOLECULE
ZINC66552814
   37    38     0     0     0
SMALL
USER_CHARGES

@<TRIPOS>ATOM
      1 C1         -1.0528    1.1958    0.0932 C.3       1 <0>        -0.1309
      2 C2         -0.5738   -0.2330    0.0999 C.ar      1 <0>        -0.0234
      3 C3         -0.6575   -0.9924   -1.0490 C.ar      1 <0>        -0.0529
      4 C4         -0.2134   -2.3156   -1.0410 C.ar      1 <0>        -0.0911
      5 C5          0.3130   -2.8617    0.1311 C.ar      1 <0>        -0.0882
      6 C6          0.3910   -2.0915    1.2727 C.ar      1 <0>        -0.0585
      7 C7         -0.0459   -0.7785    1.2564 C.ar      1 <0>        -0.0181
      8 N1          0.0464    0.0440    2.4836 N.pl3     1 <0>         0.0236
      9 O1          0.3254    1.2177    2.4051 O.2       1 <0>        -0.1356
     10 O2         -0.1573   -0.4579    3.5645 O.3       1 <0>        -0.1452
     11 C8         -0.3004   -3.1353   -2.2679 C.2       1 <0>         0.5640
     12 O3         -0.7596   -2.6572   -3.2869 O.2       1 <0>        -0.4873
     13 N2          0.1293   -4.4126   -2.2569 N.am      1 <0>        -0.6661
     14 C9          0.1487   -5.1540   -3.4424 C.ar      1 <0>         0.2596
     15 C10        -0.0986   -6.5202   -3.4123 C.ar      1 <0>        -0.2121
     16 C11        -0.0794   -7.2517   -4.5863 C.ar      1 <0>         0.2504
     17 C12         0.1867   -6.6227   -5.7909 C.ar      1 <0>        -0.7636
     18 C13         0.4336   -5.2605   -5.8232 C.ar      1 <0>         0.2506
     19 C14         0.4097   -4.5242   -4.6522 C.ar      1 <0>        -0.1920
     20 F1          0.6934   -4.6493   -6.9997 F         1 <0>        -0.0958
     21 S1          0.2117   -7.5570   -7.2846 S.o2      1 <0>         2.5006
     22 O4          1.0695   -6.8294   -8.1530 O.2       1 <0>        -0.9186
     23 O5          0.5421   -8.8785   -6.8801 O.2       1 <0>        -0.9192
     24 C15        -1.4941   -7.4995   -7.8990 C.3       1 <0>        -0.6467
     25 F2         -0.3199   -8.5808   -4.5575 F         1 <0>        -0.0965
     26 H1         -0.2102    1.8607   -0.0967 H         1 <0>         0.1013
     27 H2         -1.8008    1.3246   -0.6892 H         1 <0>         0.0858
     28 H3         -1.4940    1.4357    1.0606 H         1 <0>         0.0787
     29 H4         -1.0661   -0.5641   -1.9523 H         1 <0>         0.1639
     30 H5          0.6581   -3.8850    0.1440 H         1 <0>         0.1509
     31 H6          0.7980   -2.5127    2.1801 H         1 <0>         0.1596
     32 H7          0.4251   -4.8177   -1.4267 H         1 <0>         0.4221
     33 H8         -0.3055   -7.0113   -2.4729 H         1 <0>         0.1595
     34 H9          0.5982   -3.4611   -4.6784 H         1 <0>         0.1649
     35 H10        -1.7817   -6.4632   -8.0764 H         1 <0>         0.1336
     36 H11        -1.5636   -8.0605   -8.8309 H         1 <0>         0.1397
     37 H12        -2.1619   -7.9403   -7.1588 H         1 <0>         0.1332
@<TRIPOS>BOND
     1    1    2 1
     2    1   26 1
     3    1   27 1
     4    1   28 1
     5    2    7 ar
     6    2    3 ar
     7    3    4 ar
     8    3   29 1
     9    4    5 ar
    10    4   11 1
    11    5    6 ar
    12    5   30 1
    13    6    7 ar
    14    6   31 1
    15    7    8 1
    16    8    9 2
    17    8   10 1
    18   11   12 2
    19   11   13 am
    20   13   14 1
    21   13   32 1
    22   14   19 ar
    23   14   15 ar
    24   15   16 ar
    25   15   33 1
    26   16   17 ar
    27   16   25 1
    28   17   18 ar
    29   17   21 1
    30   18   19 ar
    31   18   20 1
    32   19   34 1
    33   21   22 2
    34   21   23 2
    35   21   24 1
    36   24   35 1
    37   24   36 1
    38   24   37 1
@<TRIPOS>MOLECULE
ZINC21272863
   44    46     0     0     0
SMALL
USER_CHARGES
2-[(3,5-dimethylisoxazol-4-yl)methylsulfanyl]-N-(4-methyl-2-oxo-chromen-7-yl)acetamide
@<TRIPOS>ATOM
      1 C1         10.5980    8.6279    1.5240 C.3       1 <0>        -0.1544
      2 C2          9.1560    8.7680    1.9389 C.2       1 <0>         0.1456
      3 C3          8.5713    9.9909    2.0282 C.2       1 <0>        -0.2809
      4 C4          7.2204   10.0957    2.4182 C.2       1 <0>         0.5266
      5 O1          6.7085   11.1982    2.4942 O.3       1 <0>        -0.3455
      6 O2          6.4838    9.0115    2.7075 O.3       1 <0>        -0.2402
      7 C5          7.0039    7.7672    2.6387 C.2       1 <0>         0.1627
      8 C6          8.3470    7.5894    2.2564 C.2       1 <0>        -0.1839
      9 C7          8.8905    6.3018    2.1832 C.2       1 <0>        -0.0157
     10 C8          8.1165    5.2203    2.4888 C.2       1 <0>        -0.1420
     11 C9          6.7836    5.3890    2.8627 C.2       1 <0>         0.2464
     12 C10         6.2293    6.6581    2.9404 C.2       1 <0>        -0.1400
     13 N1          6.0034    4.2730    3.1666 N.am      1 <0>        -0.6840
     14 C11         4.6935    4.2600    2.8495 C.2       1 <0>         0.5403
     15 O3          4.1744    5.2485    2.3757 O.2       1 <0>        -0.4885
     16 C12         3.8738    3.0173    3.0836 C.3       1 <0>        -0.1417
     17 S1          2.1627    3.3140    2.5595 S.3       1 <0>        -0.1658
     18 C13         1.3203    1.7445    2.9025 C.3       1 <0>        -0.0185
     19 C14        -0.1297    1.8558    2.5075 C.2       1 <0>        -0.2043
     20 C15        -0.7159    1.5613    1.2551 C.2       1 <0>         0.0383
     21 N2         -1.9876    1.8112    1.3767 N.2       1 <0>        -0.3594
     22 O4         -2.2613    2.1957    2.4901 O.3       1 <0>         0.1026
     23 C16        -1.1731    2.2619    3.2698 C.2       1 <0>         0.0022
     24 C17        -1.1208    2.7010    4.7105 C.3       1 <0>        -0.0845
     25 C18        -0.0077    1.0630    0.0217 C.3       1 <0>        -0.0835
     26 H1         11.0227    9.6243    1.3319 H         1 <0>         0.1019
     27 H2         10.6589    8.0206    0.6088 H         1 <0>         0.1144
     28 H3         11.1649    8.1365    2.3285 H         1 <0>         0.1145
     29 H4          9.1397   10.8806    1.8006 H         1 <0>         0.1951
     30 H5          9.9209    6.1649    1.8899 H         1 <0>         0.1628
     31 H6          8.5376    4.2271    2.4364 H         1 <0>         0.1588
     32 H7          5.1975    6.7815    3.2346 H         1 <0>         0.1727
     33 H8          6.4573    3.4038    3.6650 H         1 <0>         0.4563
     34 H9          4.2962    2.1845    2.5022 H         1 <0>         0.1236
     35 H10         3.8907    2.7631    4.1537 H         1 <0>         0.1234
     36 H11         1.7969    0.9387    2.3249 H         1 <0>         0.0996
     37 H12         1.3914    1.5172    3.9764 H         1 <0>         0.0987
     38 H13        -2.1323    2.9702    5.0487 H         1 <0>         0.0897
     39 H14        -0.4584    3.5743    4.8038 H         1 <0>         0.0966
     40 H15        -0.7335    1.8791    5.3305 H         1 <0>         0.0938
     41 H16        -0.7370    0.9285   -0.7907 H         1 <0>         0.0808
     42 H17         0.4781    0.1008    0.2414 H         1 <0>         0.0830
     43 H18         0.7527    1.7960   -0.2858 H         1 <0>         0.0859
     44 H19         5.6556   11.2960    2.7971 H         1 <0>         0.5164
@<TRIPOS>BOND
     1    1    2 1
     2    1   26 1
     3    1   27 1
     4    1   28 1
     5    2    8 2
     6    2    3 1
     7    3    4 2
     8    3   29 1
     9    4    5 1
    10    4    6 1
    11    5   44 1
    12    6    7 1
    13    7   12 2
    14    7    8 1
    15    8    9 1
    16    9   10 2
    17    9   30 1
    18   10   11 1
    19   10   31 1
    20   11   12 1
    21   11   13 2
    22   12   32 1
    23   13   14 am
    24   13   33 1
    25   14   15 2
    26   14   16 1
    27   16   17 1
    28   16   34 1
    29   16   35 1
    30   17   18 1
    31   18   19 1
    32   18   36 1
    33   18   37 1
    34   19   23 2
    35   19   20 1
    36   20   21 2
    37   20   25 1
    38   21   22 1
    39   22   23 1
    40   23   24 1
    41   24   38 1
    42   24   39 1
    43   24   40 1
    44   25   41 1
    45   25   42 1
    46   25   43 1
@<TRIPOS>MOLECULE
ZINC45623211
   38    40     0     0     0
SMALL
USER_CHARGES

@<TRIPOS>ATOM
      1 C1         -0.3090    0.9919   -0.2580 C.3       1 <0>        -0.1921
      2 C2         -0.1926   -0.5084    0.0188 C.3       1 <0>         0.1111
      3 H1         -1.1687   -0.9171    0.2799 H         1 <0>         0.1090
      4 C3          0.3778   -1.2428   -1.2375 C.3       1 <0>        -0.1041
      5 C4          1.2571   -2.2930   -0.5773 C.3       1 <0>        -0.1501
      6 H2          0.6586   -3.0881   -0.1326 H         1 <0>         0.1196
      7 C5          2.4999   -2.8452   -1.2369 C.3       1 <0>         0.0141
      8 N1          3.5089   -2.9576   -0.1404 N.4       1 <0>        -0.5214
      9 C6          2.9271   -2.3182    1.0862 C.3       1 <0>         0.0167
     10 C7          1.9103   -1.3657    0.5196 C.3       1 <0>         0.1054
     11 H3          2.4588   -0.5903   -0.0151 H         1 <0>         0.0911
     12 N2          0.7781   -0.7511    1.1280 N.am      1 <0>        -0.5913
     13 C8          0.6162   -0.4503    2.4318 C.2       1 <0>         0.5803
     14 O1          1.5363   -0.6074    3.2106 O.2       1 <0>        -0.4848
     15 C9         -0.6798    0.0706    2.9145 C.ar      1 <0>        -0.1220
     16 C10        -1.6871    0.3973    2.0046 C.ar      1 <0>        -0.0652
     17 C11        -2.8944    0.8824    2.4617 C.ar      1 <0>        -0.0462
     18 C12        -3.1094    1.0460    3.8192 C.ar      1 <0>        -0.0157
     19 C13        -2.1165    0.7252    4.7267 C.ar      1 <0>        -0.0933
     20 C14        -0.9047    0.2329    4.2833 C.ar      1 <0>        -0.0016
     21 Br1         0.4493   -0.2129    5.5259 Br        1 <0>         0.0315
     22 N3         -3.9629    1.2296    1.4980 N.pl3     1 <0>         0.0292
     23 O2         -3.7767    1.0877    0.3119 O.2       1 <0>        -0.1502
     24 O3         -5.0219    1.6550    1.8970 O.3       1 <0>        -0.1326
     25 H4          0.6138    1.3499   -0.7143 H         1 <0>         0.0787
     26 H5         -1.1434    1.1726   -0.9357 H         1 <0>         0.1007
     27 H6         -0.4806    1.5219    0.6789 H         1 <0>         0.0714
     28 H7         -0.4198   -1.7061   -1.8183 H         1 <0>         0.1101
     29 H8          0.9689   -0.5660   -1.8543 H         1 <0>         0.1001
     30 H9          2.2964   -3.8266   -1.6653 H         1 <0>         0.1454
     31 H10         2.8543   -2.1613   -2.0081 H         1 <0>         0.1409
     32 H11         3.7076   -3.9297    0.0427 H         1 <0>         0.4389
     33 H12         2.4337   -3.0606    1.7135 H         1 <0>         0.1406
     34 H13         3.6949   -1.7844    1.6464 H         1 <0>         0.1530
     35 H14        -1.5211    0.2706    0.9450 H         1 <0>         0.2015
     36 H15        -4.0569    1.4264    4.1713 H         1 <0>         0.1738
     37 H16        -2.2907    0.8556    5.7846 H         1 <0>         0.1707
     38 H17         4.3565   -2.4789   -0.4058 H         1 <0>         0.4368
@<TRIPOS>BOND
     1    1    2 1
     2    1   25 1
     3    1   26 1
     4    1   27 1
     5    2    3 1
     6    2   12 1
     7    2    4 1
     8    4    5 1
     9    4   28 1
    10    4   29 1
    11    5    6 1
    12    5   10 1
    13    5    7 1
    14    7    8 1
    15    7   30 1
    16    7   31 1
    17    8    9 1
    18    8   32 1
    19    8   38 1
    20    9   10 1
    21    9   33 1
    22    9   34 1
    23   10   11 1
    24   10   12 1
    25   12   13 am
    26   13   14 2
    27   13   15 1
    28   15   20 ar
    29   15   16 ar
    30   16   17 ar
    31   16   35 1
    32   17   18 ar
    33   17   22 1
    34   18   19 ar
    35   18   36 1
    36   19   20 ar
    37   19   37 1
    38   20   21 1
    39   22   23 2
    40   22   24 1
@<TRIPOS>MOLECULE
ZINC60403234
   43    45     0     0     0
SMALL
USER_CHARGES

@<TRIPOS>ATOM
      1 C1         -0.0184    1.5028    0.0103 C.3       1 <0>        -0.1241
      2 C2          0.0021   -0.0041    0.0020 C.2       1 <0>        -0.0704
      3 C3          0.0058   -0.6965   -1.2202 C.2       1 <0>        -0.0153
      4 C4          0.0247   -2.0566   -1.2239 C.2       1 <0>        -0.1201
      5 C5          0.0403   -2.7502    0.0029 C.cat     1 <0>         0.3038
      6 N1          0.0590   -4.0425    0.2974 N.pl3     1 <0>        -0.5000
      7 C6          0.0670   -4.1893    1.6245 C.2       1 <0>         0.0748
      8 C7          0.0532   -2.9644    2.1943 C.2       1 <0>         0.0014
      9 N2          0.0362   -2.0467    1.1794 N.pl3     1 <0>        -0.3230
     10 C8          0.0224   -0.6820    1.1687 C.2       1 <0>         0.0746
     11 C9          0.0880   -5.5025    2.3635 C.3       1 <0>         0.1799
     12 N3          1.4710   -5.9683    2.4924 N.am      1 <0>        -0.7410
     13 C10         1.7349   -7.1301    3.1225 C.2       1 <0>         0.5657
     14 O1          0.8239   -7.7925    3.5846 O.2       1 <0>        -0.5308
     15 C11         3.0729   -7.5808    3.2471 C.2       1 <0>        -0.2454
     16 C12         3.3374   -8.7456    3.8789 C.2       1 <0>         0.0676
     17 C13         4.7237   -9.2125    4.0080 C.2       1 <0>        -0.2244
     18 C14         5.3557   -9.6520    5.1950 C.2       1 <0>         0.1142
     19 N4          6.5824   -9.9832    4.9011 N.2       1 <0>        -0.2679
     20 N5          6.7956   -9.7763    3.5339 N.pl3     1 <0>        -0.3497
     21 C15         5.6573   -9.3113    2.9895 C.2       1 <0>         0.1469
     22 Cl1         5.4057   -8.9060    1.3203 Cl        1 <0>         0.0081
     23 C16         8.0467  -10.0298    2.8150 C.3       1 <0>         0.0881
     24 C17         4.7223   -9.7244    6.5604 C.3       1 <0>        -0.0808
     25 H1          1.0042    1.8801    0.0026 H         1 <0>         0.0971
     26 H2         -0.5455    1.8639   -0.8728 H         1 <0>         0.0932
     27 H3         -0.5286    1.8543    0.9071 H         1 <0>         0.0880
     28 H4         -0.0067   -0.1516   -2.1525 H         1 <0>         0.1762
     29 H5          0.0274   -2.5995   -2.1575 H         1 <0>         0.1815
     30 H6          0.0548   -2.7497    3.2527 H         1 <0>         0.2302
     31 H7          0.0235   -0.1396    2.1027 H         1 <0>         0.2010
     32 H8         -0.3440   -5.3683    3.3552 H         1 <0>         0.1192
     33 H9         -0.4937   -6.2400    1.8105 H         1 <0>         0.1039
     34 H10         2.1968   -5.4405    2.1242 H         1 <0>         0.4042
     35 H11         3.8810   -6.9931    2.8372 H         1 <0>         0.1251
     36 H12         2.5293   -9.3332    4.2888 H         1 <0>         0.1446
     37 H13         8.0509  -11.0544    2.4431 H         1 <0>         0.0882
     38 H14         8.1304   -9.3385    1.9764 H         1 <0>         0.0932
     39 H15         8.8897   -9.8851    3.4906 H         1 <0>         0.1037
     40 H16         4.2633  -10.7037    6.6966 H         1 <0>         0.0888
     41 H17         5.4854   -9.5716    7.3236 H         1 <0>         0.0833
     42 H18         3.9599   -8.9504    6.6488 H         1 <0>         0.0837
     43 H19         0.0658   -4.7662   -0.3483 H         1 <0>         0.4627
@<TRIPOS>BOND
     1    1    2 1
     2    1   25 1
     3    1   26 1
     4    1   27 1
     5    2   10 2
     6    2    3 1
     7    3    4 2
     8    3   28 1
     9    4    5 1
    10    4   29 1
    11    5    9 1
    12    5    6 2
    13    6    7 1
    14    6   43 1
    15    7    8 2
    16    7   11 1
    17    8    9 1
    18    8   30 1
    19    9   10 1
    20   10   31 1
    21   11   12 1
    22   11   32 1
    23   11   33 1
    24   12   13 am
    25   12   34 1
    26   13   14 2
    27   13   15 1
    28   15   16 2
    29   15   35 1
    30   16   17 1
    31   16   36 1
    32   17   21 2
    33   17   18 1
    34   18   19 2
    35   18   24 1
    36   19   20 1
    37   20   21 1
    38   20   23 1
    39   21   22 1
    40   23   37 1
    41   23   38 1
    42   23   39 1
    43   24   40 1
    44   24   41 1
    45   24   42 1
@<TRIPOS>MOLECULE
ZINC64800946
   69    71     0     0     0
SMALL
USER_CHARGES

@<TRIPOS>ATOM
      1 C1         -0.0535    0.8310   -0.4841 C.3       1 <0>        -0.1514
      2 C2         -0.1197   -0.6950   -0.3952 C.3       1 <0>        -0.1073
      3 C3          0.5138   -1.3081   -1.6474 C.3       1 <0>        -0.1306
      4 C4          0.5133   -2.8336   -1.5131 C.3       1 <0>        -0.1087
      5 C5          1.2563   -3.2279   -0.2349 C.3       1 <0>        -0.0154
      6 N1          0.5870   -2.6326    0.9279 N.4       1 <0>        -0.3774
      7 C6          0.6469   -1.1685    0.8416 C.3       1 <0>        -0.0170
      8 C7          1.2571   -3.0769    2.1574 C.3       1 <0>         0.0460
      9 C8          1.1874   -4.6023    2.2534 C.3       1 <0>        -0.1778
     10 C9          2.7213   -2.6341    2.1288 C.3       1 <0>        -0.1755
     11 C10         0.5604   -2.4572    3.3704 C.3       1 <0>         0.1018
     12 N2         -0.8416   -2.8812    3.3978 N.am      1 <0>        -0.7524
     13 C11        -1.6553   -2.4553    4.3842 C.2       1 <0>         0.5256
     14 O1         -1.2268   -1.7210    5.2492 O.2       1 <0>        -0.5096
     15 C12        -3.0975   -2.8915    4.4124 C.3       1 <0>        -0.1064
     16 C13        -3.7949   -2.4299    3.1307 C.3       1 <0>        -0.1232
     17 C14        -5.2513   -2.9048    3.1472 C.3       1 <0>         0.1311
     18 N3         -5.8885   -2.4333    4.3842 N.am      1 <0>        -0.6275
     19 C15        -5.2504   -2.7445    5.6706 C.3       1 <0>         0.0448
     20 C16        -3.7941   -2.2714    5.6259 C.3       1 <0>        -0.1152
     21 C17        -7.0363   -1.7283    4.3398 C.2       1 <0>         0.7272
     22 O2         -7.4456   -1.2993    3.2783 O.2       1 <0>        -0.5827
     23 N4         -7.7304   -1.4987    5.4721 N.am      1 <0>        -0.6358
     24 C18        -7.2661   -1.7916    6.8360 C.3       1 <0>         0.0918
     25 C19        -8.3995   -1.3876    7.8024 C.3       1 <0>        -0.1371
     26 C20        -9.6572   -1.4163    6.8943 C.3       1 <0>        -0.1347
     27 C21        -9.0782   -0.9064    5.5485 C.3       1 <0>         0.1233
     28 C22         1.2145   -3.4533   -2.7235 C.3       1 <0>        -0.1510
     29 H1          0.9874    1.1458   -0.5595 H         1 <0>         0.0678
     30 H2         -0.5997    1.1677   -1.3652 H         1 <0>         0.0790
     31 H3         -0.5010    1.2667    0.4092 H         1 <0>         0.0682
     32 H4         -1.1604   -1.0105   -0.3213 H         1 <0>         0.0925
     33 H5         -0.0627   -1.0193   -2.5262 H         1 <0>         0.0958
     34 H6          1.5388   -0.9515   -1.7492 H         1 <0>         0.0836
     35 H7         -0.5141   -3.1941   -1.4628 H         1 <0>         0.0928
     36 H8          1.2580   -4.3134   -0.1363 H         1 <0>         0.1336
     37 H9          2.2836   -2.8671   -0.2863 H         1 <0>         0.1335
     38 H10         1.6871   -0.8516    0.7672 H         1 <0>         0.1341
     39 H11         0.1985   -0.7337    1.7349 H         1 <0>         0.1311
     40 H12         1.6837   -5.0438    1.3892 H         1 <0>         0.0894
     41 H13         1.6846   -4.9320    3.1657 H         1 <0>         0.1110
     42 H14         0.1442   -4.9178    2.2738 H         1 <0>         0.0795
     43 H15         2.7709   -1.5474    2.0603 H         1 <0>         0.0861
     44 H16         3.2185   -2.9638    3.0410 H         1 <0>         0.1098
     45 H17         3.2176   -3.0756    1.2646 H         1 <0>         0.0900
     46 H18         1.0576   -2.7869    4.2827 H         1 <0>         0.1138
     47 H19         0.6101   -1.3704    3.3020 H         1 <0>         0.0949
     48 H20        -1.1843   -3.4684    2.7060 H         1 <0>         0.3945
     49 H21        -3.1469   -3.9782    4.4813 H         1 <0>         0.1054
     50 H22        -3.7677   -1.3418    3.0734 H         1 <0>         0.0768
     51 H23        -3.2840   -2.8532    2.2659 H         1 <0>         0.0701
     52 H24        -5.7788   -2.4957    2.2855 H         1 <0>         0.1002
     53 H25        -5.2809   -3.9939    3.1131 H         1 <0>         0.0692
     54 H26        -5.7774   -2.2297    6.4739 H         1 <0>         0.1409
     55 H27        -5.2800   -3.8205    5.8423 H         1 <0>         0.0685
     56 H28        -3.2826   -2.5818    6.5370 H         1 <0>         0.0862
     57 H29        -3.7669   -1.1848    5.5450 H         1 <0>         0.0757
     58 H30        -7.0562   -2.8566    6.9354 H         1 <0>         0.0776
     59 H31        -6.3687   -1.2128    7.0544 H         1 <0>         0.0795
     60 H32        -8.4919   -2.1112    8.6123 H         1 <0>         0.0872
     61 H33        -8.2312   -0.3854    8.1966 H         1 <0>         0.0808
     62 H34       -10.0460   -2.4300    6.7972 H         1 <0>         0.0785
     63 H35       -10.4250   -0.7393    7.2688 H         1 <0>         0.0898
     64 H36        -9.0150    0.1817    5.5480 H         1 <0>         0.0695
     65 H37        -9.6921   -1.2520    4.7167 H         1 <0>         0.0798
     66 H38         2.2423   -3.0935   -2.7716 H         1 <0>         0.0676
     67 H39         1.2137   -4.5390   -2.6273 H         1 <0>         0.0685
     68 H40         0.6870   -3.1688   -3.6340 H         1 <0>         0.0786
     69 H41        -0.3775   -2.9282    0.9473 H         1 <0>         0.4138
@<TRIPOS>BOND
     1    1    2 1
     2    1   29 1
     3    1   30 1
     4    1   31 1
     5    2    7 1
     6    2    3 1
     7    2   32 1
     8    3    4 1
     9    3   33 1
    10    3   34 1
    11    4    5 1
    12    4   28 1
    13    4   35 1
    14    5    6 1
    15    5   36 1
    16    5   37 1
    17    6    7 1
    18    6    8 1
    19    6   69 1
    20    7   38 1
    21    7   39 1
    22    8    9 1
    23    8   10 1
    24    8   11 1
    25    9   40 1
    26    9   41 1
    27    9   42 1
    28   10   43 1
    29   10   44 1
    30   10   45 1
    31   11   12 1
    32   11   46 1
    33   11   47 1
    34   12   13 am
    35   12   48 1
    36   13   14 2
    37   13   15 1
    38   15   20 1
    39   15   16 1
    40   15   49 1
    41   16   17 1
    42   16   50 1
    43   16   51 1
    44   17   18 1
    45   17   52 1
    46   17   53 1
    47   18   19 1
    48   18   21 am
    49   19   20 1
    50   19   54 1
    51   19   55 1
    52   20   56 1
    53   20   57 1
    54   21   22 2
    55   21   23 am
    56   23   27 1
    57   23   24 1
    58   24   25 1
    59   24   58 1
    60   24   59 1
    61   25   26 1
    62   25   60 1
    63   25   61 1
    64   26   27 1
    65   26   62 1
    66   26   63 1
    67   27   64 1
    68   27   65 1
    69   28   66 1
    70   28   67 1
    71   28   68 1
@<TRIPOS>MOLECULE
ZINC67391764
   57    61     0     0     0
SMALL
USER_CHARGES

@<TRIPOS>ATOM
      1 C1         -0.0167    1.3777    0.0096 C.ar      1 <0>        -0.1142
      2 C2          1.1697    2.0876    0.0021 C.ar      1 <0>        -0.1001
      3 C3          2.3783    1.4178   -0.0143 C.ar      1 <0>        -0.0827
      4 C4          2.4042    0.0310   -0.0230 C.ar      1 <0>         0.0618
      5 C5          1.2117   -0.6826   -0.0129 C.ar      1 <0>         0.0560
      6 C6          0.0021   -0.0041    0.0020 C.ar      1 <0>        -0.1127
      7 O1          1.2145   -2.0436   -0.0133 O.3       1 <0>        -0.3054
      8 C7          2.4336   -2.6847   -0.4041 C.3       1 <0>         0.0194
      9 C8          3.5941   -1.9974    0.3280 C.3       1 <0>         0.0205
     10 O2          3.6022   -0.6147   -0.0433 O.3       1 <0>        -0.3054
     11 C9          3.6695    2.1948   -0.0233 C.3       1 <0>         0.2075
     12 H1          4.3892    1.7099   -0.6829 H         1 <0>         0.0921
     13 C10         4.2420    2.2781    1.4074 C.3       1 <0>        -0.1214
     14 C11         4.8141    3.7190    1.4694 C.3       1 <0>        -0.1321
     15 C12         3.7866    4.4988    0.6115 C.3       1 <0>         0.0955
     16 N1          3.4219    3.5706   -0.4787 N.am      1 <0>        -0.6258
     17 C13         2.9427    3.9236   -1.6879 C.2       1 <0>         0.7257
     18 O3          2.6763    3.0680   -2.5096 O.2       1 <0>        -0.5635
     19 N2          2.7589    5.2250   -1.9862 N.am      1 <0>        -0.7381
     20 C14         2.2380    5.6087   -3.3007 C.3       1 <0>         0.1548
     21 H2          2.5959    4.9280   -4.0731 H         1 <0>         0.1252
     22 C15         0.6853    5.6660   -3.2873 C.3       1 <0>        -0.1616
     23 C16         0.3235    6.9064   -4.1405 C.3       1 <0>        -0.0063
     24 N3          1.5919    7.4193   -4.6609 N.4       1 <0>        -0.3878
     25 C17         2.6089    7.0637   -3.6355 C.3       1 <0>         0.0235
     26 H3          2.5156    7.7008   -2.7560 H         1 <0>         0.1461
     27 C18         3.9796    7.2110   -4.2819 C.3       1 <0>        -0.1379
     28 C19         4.1602    8.6929   -4.6475 C.3       1 <0>        -0.1385
     29 C20         3.0124    9.1707   -5.5364 C.3       1 <0>        -0.1488
     30 C21         1.6536    8.8555   -4.8882 C.3       1 <0>        -0.0010
     31 H4         -0.9596    1.9040    0.0259 H         1 <0>         0.1293
     32 H5          1.1518    3.1674    0.0087 H         1 <0>         0.1183
     33 H6         -0.9261   -0.5562    0.0079 H         1 <0>         0.1355
     34 H7          2.3988   -3.7390   -0.1298 H         1 <0>         0.1256
     35 H8          2.5703   -2.5889   -1.4813 H         1 <0>         0.0789
     36 H9          3.4543   -2.0880    1.4052 H         1 <0>         0.0804
     37 H10         4.5372   -2.4612    0.0389 H         1 <0>         0.1253
     38 H11         3.4525    2.1444    2.1470 H         1 <0>         0.0820
     39 H12         5.0336    1.5424    1.5494 H         1 <0>         0.0924
     40 H13         4.8287    4.0897    2.4943 H         1 <0>         0.0916
     41 H14         5.8084    3.7640    1.0251 H         1 <0>         0.0812
     42 H15         2.9088    4.7505    1.2066 H         1 <0>         0.0740
     43 H16         4.2408    5.4016    0.2032 H         1 <0>         0.0731
     44 H17         2.9715    5.9076   -1.3307 H         1 <0>         0.4021
     45 H18         0.2690    4.7636   -3.7350 H         1 <0>         0.1130
     46 H19         0.3194    5.7876   -2.2678 H         1 <0>         0.1086
     47 H20        -0.3312    6.6186   -4.9630 H         1 <0>         0.1366
     48 H21        -0.1607    7.6607   -3.5203 H         1 <0>         0.1318
     49 H22         4.7551    6.9058   -3.5794 H         1 <0>         0.1142
     50 H23         4.0323    6.5985   -5.1820 H         1 <0>         0.0936
     51 H24         4.1798    9.2885   -3.7347 H         1 <0>         0.0823
     52 H25         5.1033    8.8197   -5.1790 H         1 <0>         0.0969
     53 H26         3.0978   10.2471   -5.6851 H         1 <0>         0.1138
     54 H27         3.0742    8.6697   -6.5024 H         1 <0>         0.0889
     55 H28         0.8469    9.1585   -5.5557 H         1 <0>         0.1327
     56 H29         1.5657    9.3835   -3.9386 H         1 <0>         0.1289
     57 H30         1.8187    6.9366   -5.5174 H         1 <0>         0.4244
@<TRIPOS>BOND
     1    1    6 ar
     2    1    2 ar
     3    1   31 1
     4    2    3 ar
     5    2   32 1
     6    3    4 ar
     7    3   11 1
     8    4   10 1
     9    4    5 ar
    10    5    6 ar
    11    5    7 1
    12    6   33 1
    13    7    8 1
    14    8    9 1
    15    8   34 1
    16    8   35 1
    17    9   10 1
    18    9   36 1
    19    9   37 1
    20   11   12 1
    21   11   16 1
    22   11   13 1
    23   13   14 1
    24   13   38 1
    25   13   39 1
    26   14   15 1
    27   14   40 1
    28   14   41 1
    29   15   16 1
    30   15   42 1
    31   15   43 1
    32   16   17 am
    33   17   18 2
    34   17   19 am
    35   19   20 1
    36   19   44 1
    37   20   21 1
    38   20   25 1
    39   20   22 1
    40   22   23 1
    41   22   45 1
    42   22   46 1
    43   23   24 1
    44   23   47 1
    45   23   48 1
    46   24   30 1
    47   24   25 1
    48   24   57 1
    49   25   26 1
    50   25   27 1
    51   27   28 1
    52   27   49 1
    53   27   50 1
    54   28   29 1
    55   28   51 1
    56   28   52 1
    57   29   30 1
    58   29   53 1
    59   29   54 1
    60   30   55 1
    61   30   56 1
@<TRIPOS>MOLECULE
ZINC00627739
   50    53     0     0     0
SMALL
USER_CHARGES
5-[[4-(2-furylcarbonyl)piperazin-1-yl]methylene]-1-(p-tolyl)-2-thioxo-hexahydropyrimidine-4,6-dione
@<TRIPOS>ATOM
      1 C1          5.8169    3.5680    3.2963 C.3       1 <0>        -0.1190
      2 C2          4.4984    3.3266    2.6074 C.ar      1 <0>        -0.0631
      3 C3          3.8428    4.3735    1.9860 C.ar      1 <0>        -0.1117
      4 C4          2.6345    4.1553    1.3534 C.ar      1 <0>        -0.0782
      5 C5          2.0781    2.8832    1.3423 C.ar      1 <0>         0.1098
      6 C6          2.7361    1.8352    1.9720 C.ar      1 <0>        -0.0683
      7 C7          3.9471    2.0585    2.5976 C.ar      1 <0>        -0.1108
      8 N1          0.8524    2.6588    0.7018 N.am      1 <0>        -0.4686
      9 C8         -0.2874    3.0616    1.3005 C.2       1 <0>         0.5712
     10 O1         -0.2623    3.6147    2.3840 O.2       1 <0>        -0.4791
     11 C9         -1.5637    2.8140    0.6066 C.2       1 <0>        -0.4283
     12 C10        -2.7713    3.1990    1.1583 C.2       1 <0>         0.3725
     13 N2         -3.8852    2.4808    0.9104 N.pl3     1 <0>        -0.5605
     14 C11        -5.1678    3.1527    0.6589 C.3       1 <0>         0.0896
     15 C12        -5.7167    2.6613   -0.6914 C.3       1 <0>         0.1021
     16 N3         -5.6712    1.1925   -0.7088 N.am      1 <0>        -0.6026
     17 C13        -4.3897    0.5205   -0.4517 C.3       1 <0>         0.0561
     18 C14        -3.8397    1.0119    0.8930 C.3       1 <0>         0.0994
     19 C15        -6.7846    0.4746   -0.9565 C.2       1 <0>         0.6067
     20 O2         -7.8619    1.0337   -1.0449 O.2       1 <0>        -0.5169
     21 C16        -6.6979   -0.9803   -1.1197 C.2       1 <0>        -0.0873
     22 C17        -7.7525   -1.8365   -1.2576 C.2       1 <0>        -0.1098
     23 C18        -7.2119   -3.1255   -1.3854 C.2       1 <0>        -0.2219
     24 C19        -5.8678   -3.0012   -1.3208 C.2       1 <0>        -0.0082
     25 O3         -5.5618   -1.7065   -1.1657 O.3       1 <0>        -0.1612
     26 C20        -1.4958    2.1430   -0.7042 C.2       1 <0>         0.5606
     27 O4         -2.5068    1.9087   -1.3393 O.2       1 <0>        -0.4880
     28 N4         -0.2828    1.7919   -1.1785 N.am      1 <0>        -0.6155
     29 C21         0.8392    2.0492   -0.4918 C.2       1 <0>         0.5387
     30 S1          2.3350    1.5735   -1.1755 S.2       1 <0>        -0.5119
     31 H1          5.6389    3.8354    4.3379 H         1 <0>         0.0745
     32 H2          6.4213    2.6620    3.2519 H         1 <0>         0.0702
     33 H3          6.3440    4.3812    2.7973 H         1 <0>         0.0700
     34 H4          4.2761    5.3627    1.9950 H         1 <0>         0.1318
     35 H5          2.1232    4.9732    0.8676 H         1 <0>         0.1239
     36 H6          2.3036    0.8456    1.9689 H         1 <0>         0.1240
     37 H7          4.4617    1.2427    3.0835 H         1 <0>         0.1319
     38 H8         -2.8225    4.0750    1.7878 H         1 <0>         0.1676
     39 H9         -5.8716    2.9070    1.4541 H         1 <0>         0.0917
     40 H10        -5.0149    4.2313    0.6227 H         1 <0>         0.1086
     41 H11        -5.1052    3.0559   -1.5029 H         1 <0>         0.0865
     42 H12        -6.7466    2.9969   -0.8129 H         1 <0>         0.1136
     43 H13        -3.6838    0.7626   -1.2462 H         1 <0>         0.1312
     44 H14        -4.5436   -0.5579   -0.4119 H         1 <0>         0.1153
     45 H15        -2.8094    0.6764    1.0114 H         1 <0>         0.0963
     46 H16        -4.4487    0.6174    1.7064 H         1 <0>         0.0903
     47 H17        -8.7998   -1.5729   -1.2670 H         1 <0>         0.1616
     48 H18        -7.7658   -4.0439   -1.5117 H         1 <0>         0.1592
     49 H19        -5.1573   -3.8118   -1.3870 H         1 <0>         0.2118
     50 H20        -0.2208    1.3466   -2.0380 H         1 <0>         0.4443
@<TRIPOS>BOND
     1    1    2 1
     2    1   31 1
     3    1   32 1
     4    1   33 1
     5    2    7 ar
     6    2    3 ar
     7    3    4 ar
     8    3   34 1
     9    4    5 ar
    10    4   35 1
    11    5    6 ar
    12    5    8 1
    13    6    7 ar
    14    6   36 1
    15    7   37 1
    16    8   29 1
    17    8    9 am
    18    9   10 2
    19    9   11 1
    20   11   12 2
    21   11   26 1
    22   12   13 1
    23   12   38 1
    24   13   18 1
    25   13   14 1
    26   14   15 1
    27   14   39 1
    28   14   40 1
    29   15   16 1
    30   15   41 1
    31   15   42 1
    32   16   17 1
    33   16   19 am
    34   17   18 1
    35   17   43 1
    36   17   44 1
    37   18   45 1
    38   18   46 1
    39   19   20 2
    40   19   21 1
    41   21   25 1
    42   21   22 2
    43   22   23 1
    44   22   47 1
    45   23   24 2
    46   23   48 1
    47   24   25 1
    48   24   49 1
    49   26   27 2
    50   26   28 am
    51   28   29 1
    52   28   50 1
    53   29   30 2
@<TRIPOS>MOLECULE
ZINC33021119
   56    59     0     0     0
SMALL
USER_CHARGES
6-[[(3S)-3-[(2R)-2-methylpiperidine-1-carbonyl]-1-piperidyl]sulfonyl]-4H-1,4-benzoxazin-3-one
@<TRIPOS>ATOM
      1 C1          2.0655    2.6850    7.0993 C.3       1 <0>        -0.1412
      2 C2          0.8809    1.7826    7.4504 C.3       1 <0>         0.1437
      3 H1          0.1688    2.3199    8.0940 H         1 <0>         0.0718
      4 C3          1.3895    0.5191    8.1421 C.3       1 <0>        -0.1327
      5 C4          0.2209   -0.4439    8.3640 C.3       1 <0>        -0.1224
      6 C5         -0.3801   -0.8392    7.0132 C.3       1 <0>        -0.1379
      7 C6         -0.9125    0.4132    6.3096 C.3       1 <0>         0.1009
      8 N1          0.1700    1.4026    6.2220 N.am      1 <0>        -0.6075
      9 C7          0.5083    1.9472    5.0365 C.2       1 <0>         0.5208
     10 O1          1.4438    2.7160    4.9672 O.2       1 <0>        -0.5260
     11 C8         -0.2758    1.6009    3.7971 C.3       1 <0>        -0.1263
     12 H2         -0.3145    0.5056    3.7027 H         1 <0>         0.0987
     13 C9         -1.6934    2.1654    3.9151 C.3       1 <0>        -0.1136
     14 C10        -2.5005    1.7861    2.6714 C.3       1 <0>        -0.1349
     15 C11        -1.8371    2.4019    1.4301 C.3       1 <0>         0.1134
     16 N2         -0.4320    1.9743    1.3907 N.pl3     1 <0>        -0.9932
     17 C12         0.4114    2.2095    2.5706 C.3       1 <0>         0.1388
     18 S1          0.1911    1.2473    0.0396 S.o2      1 <0>         2.6918
     19 O2          1.5942    1.4702    0.0690 O.2       1 <0>        -0.9479
     20 O3         -0.6222    1.6543   -1.0523 O.2       1 <0>        -0.9470
     21 C13        -0.0470   -0.4886    0.2253 C.ar      1 <0>        -0.6719
     22 C14        -1.2068   -1.0792   -0.2417 C.ar      1 <0>        -0.0090
     23 C15        -1.4012   -2.4413   -0.1003 C.ar      1 <0>        -0.1258
     24 C16        -0.4313   -3.2162    0.5113 C.ar      1 <0>         0.1312
     25 C17         0.7376   -2.6208    0.9827 C.ar      1 <0>         0.0805
     26 C18         0.9292   -1.2573    0.8325 C.ar      1 <0>        -0.0268
     27 N3          1.7115   -3.4173    1.6016 N.am      1 <0>        -0.6734
     28 C19         1.6523   -4.7585    1.4516 C.2       1 <0>         0.4928
     29 O4          2.4655   -5.4694    2.0034 O.2       1 <0>        -0.5040
     30 C20         0.5710   -5.3681    0.5962 C.3       1 <0>         0.0445
     31 O5         -0.6050   -4.5569    0.6576 O.3       1 <0>        -0.2977
     32 H3          2.5962    2.9683    8.0202 H         1 <0>         0.0441
     33 H4          1.6993    3.5907    6.5938 H         1 <0>         0.0814
     34 H5          2.7526    2.1448    6.4315 H         1 <0>         0.0661
     35 H6          2.1491    0.0357    7.5102 H         1 <0>         0.0678
     36 H7          1.8350    0.7860    9.1118 H         1 <0>         0.0768
     37 H8          0.5815   -1.3448    8.8820 H         1 <0>         0.0675
     38 H9         -0.5485    0.0483    8.9770 H         1 <0>         0.0657
     39 H10         0.3951   -1.3097    6.3906 H         1 <0>         0.0663
     40 H11        -1.2041   -1.5503    7.1725 H         1 <0>         0.0772
     41 H12        -1.2576    0.1475    5.2995 H         1 <0>         0.0895
     42 H13        -1.7519    0.8289    6.8863 H         1 <0>         0.0727
     43 H14        -2.1807    1.7487    4.8089 H         1 <0>         0.0754
     44 H15        -1.6459    3.2610    4.0006 H         1 <0>         0.0754
     45 H16        -2.5261    0.6910    2.5708 H         1 <0>         0.0710
     46 H17        -3.5269    2.1694    2.7694 H         1 <0>         0.0846
     47 H18        -2.3597    2.0567    0.5258 H         1 <0>         0.0969
     48 H19        -1.8938    3.4988    1.4901 H         1 <0>         0.0818
     49 H20         0.5451    3.2905    2.7240 H         1 <0>         0.0925
     50 H21         1.3935    1.7352    2.4275 H         1 <0>         0.0974
     51 H22        -1.9641   -0.4744   -0.7184 H         1 <0>         0.1525
     52 H23        -2.3084   -2.8992   -0.4661 H         1 <0>         0.1518
     53 H24         1.8365   -0.7950    1.1923 H         1 <0>         0.1496
     54 H25         2.5078   -2.9483    2.1982 H         1 <0>         0.4458
     55 H26         0.9185   -5.4291   -0.4457 H         1 <0>         0.1071
     56 H27         0.3376   -6.3780    0.9646 H         1 <0>         0.1539
@<TRIPOS>BOND
     1    1    2 1
     2    1   32 1
     3    1   33 1
     4    1   34 1
     5    2    3 1
     6    2    8 1
     7    2    4 1
     8    4    5 1
     9    4   35 1
    10    4   36 1
    11    5    6 1
    12    5   37 1
    13    5   38 1
    14    6    7 1
    15    6   39 1
    16    6   40 1
    17    7    8 1
    18    7   41 1
    19    7   42 1
    20    8    9 am
    21    9   10 2
    22    9   11 1
    23   11   12 1
    24   11   17 1
    25   11   13 1
    26   13   14 1
    27   13   43 1
    28   13   44 1
    29   14   15 1
    30   14   45 1
    31   14   46 1
    32   15   16 1
    33   15   47 1
    34   15   48 1
    35   16   17 1
    36   16   18 1
    37   17   49 1
    38   17   50 1
    39   18   19 2
    40   18   20 2
    41   18   21 1
    42   21   26 ar
    43   21   22 ar
    44   22   23 ar
    45   22   51 1
    46   23   24 ar
    47   23   52 1
    48   24   31 1
    49   24   25 ar
    50   25   26 ar
    51   25   27 1
    52   26   53 1
    53   27   28 am
    54   27   54 1
    55   28   29 2
    56   28   30 1
    57   30   31 1
    58   30   55 1
    59   30   56 1
@<TRIPOS>MOLECULE
ZINC47070601
   56    58     0     0     0
SMALL
USER_CHARGES

@<TRIPOS>ATOM
      1 C1         -0.8354    2.0368    0.7524 C.3       1 <0>        -0.1530
      2 C2         -0.6864    0.5164    0.6688 C.3       1 <0>         0.0798
      3 O1         -1.9805   -0.0861    0.6022 O.3       1 <0>        -0.3633
      4 C3         -2.0260   -1.4294    0.5239 C.2       1 <0>         0.6522
      5 O2         -0.9952   -2.0727    0.5124 O.2       1 <0>        -0.5687
      6 N1         -3.2150   -2.0607    0.4582 N.am      1 <0>        -0.5949
      7 C4         -4.4696   -1.2954    0.4650 C.3       1 <0>         0.0981
      8 C5         -5.2866   -1.6826   -0.7739 C.3       1 <0>         0.1152
      9 N2         -5.3517   -3.1487   -0.8540 N.am      1 <0>        -0.6300
     10 C6         -4.0971   -3.9140   -0.8608 C.3       1 <0>         0.0980
     11 C7         -3.2799   -3.5264    0.3724 C.3       1 <0>         0.1146
     12 C8         -6.5407   -3.7799   -0.9197 C.2       1 <0>         0.7099
     13 O3         -7.5725   -3.1449   -0.8181 O.2       1 <0>        -0.5871
     14 N3         -6.5858   -5.1151   -1.0981 N.am      1 <0>        -0.7339
     15 C9         -7.8752   -5.7868   -1.2783 C.3       1 <0>         0.1510
     16 C10        -7.6582   -7.3003   -1.3351 C.3       1 <0>         0.0944
     17 C11        -9.0198   -7.9922   -1.2890 C.3       1 <0>        -0.1567
     18 C12        -9.5690   -8.1975   -2.7285 C.3       1 <0>        -0.0600
     19 S1         -8.0037   -8.6611   -3.5918 S.3       1 <0>        -0.2944
     20 C13        -6.8415   -7.6350   -2.5985 C.3       1 <0>        -0.0594
     21 N4         -6.8863   -7.7084   -0.1538 N.3       1 <0>        -0.5204
     22 C14        -6.5919   -9.1483   -0.1884 C.3       1 <0>         0.0081
     23 C15        -5.7377   -9.5184    1.0270 C.3       1 <0>         0.0646
     24 O4         -6.4249   -9.1348    2.2211 O.3       1 <0>        -0.3828
     25 C16        -6.7269   -7.7385    2.2882 C.3       1 <0>         0.0659
     26 C17        -7.5912   -7.3504    1.0856 C.3       1 <0>         0.0111
     27 H1          0.1517    2.4963    0.8032 H         1 <0>         0.0830
     28 H2         -1.3601    2.3996   -0.1314 H         1 <0>         0.0671
     29 H3         -1.4040    2.2976    1.6451 H         1 <0>         0.0670
     30 H4         -0.1178    0.2556   -0.2239 H         1 <0>         0.0685
     31 H5         -0.1618    0.1535    1.5526 H         1 <0>         0.0685
     32 H6         -5.0368   -1.5307    1.3655 H         1 <0>         0.0782
     33 H7         -4.2475   -0.2286    0.4379 H         1 <0>         0.1063
     34 H8         -6.2943   -1.2758   -0.6894 H         1 <0>         0.1102
     35 H9         -4.8041   -1.2884   -1.6682 H         1 <0>         0.0730
     36 H10        -4.3192   -4.9808   -0.8337 H         1 <0>         0.0941
     37 H11        -3.5299   -3.6787   -1.7613 H         1 <0>         0.0779
     38 H12        -2.2723   -3.9327    0.2842 H         1 <0>         0.1101
     39 H13        -3.7605   -3.9243    1.2662 H         1 <0>         0.0787
     40 H14        -5.7646   -5.6312   -1.1071 H         1 <0>         0.4027
     41 H15        -8.5310   -5.5449   -0.4419 H         1 <0>         0.0751
     42 H16        -8.3333   -5.4503   -2.2084 H         1 <0>         0.0728
     43 H17        -8.9155   -8.9613   -0.8012 H         1 <0>         0.0904
     44 H18        -9.7178   -7.3772   -0.7210 H         1 <0>         0.0888
     45 H19       -10.2974   -9.0077   -2.7641 H         1 <0>         0.1120
     46 H20        -9.9858   -7.2740   -3.1302 H         1 <0>         0.0960
     47 H21        -6.5753   -6.7253   -3.1367 H         1 <0>         0.1005
     48 H22        -5.9494   -8.2054   -2.3400 H         1 <0>         0.1139
     49 H23        -7.5250   -9.7112   -0.1625 H         1 <0>         0.0536
     50 H24        -6.0475   -9.3867   -1.1021 H         1 <0>         0.0932
     51 H25        -5.5648  -10.5946    1.0363 H         1 <0>         0.1002
     52 H26        -4.7824   -8.9962    0.9731 H         1 <0>         0.0602
     53 H27        -7.2695   -7.5274    3.2097 H         1 <0>         0.0988
     54 H28        -5.8005   -7.1645    2.2710 H         1 <0>         0.0592
     55 H29        -7.7762   -6.2763    1.1019 H         1 <0>         0.0914
     56 H30        -8.5402   -7.8846    1.1319 H         1 <0>         0.0500
@<TRIPOS>BOND
     1    1    2 1
     2    1   27 1
     3    1   28 1
     4    1   29 1
     5    2    3 1
     6    2   30 1
     7    2   31 1
     8    3    4 1
     9    4    5 2
    10    4    6 am
    11    6   11 1
    12    6    7 1
    13    7    8 1
    14    7   32 1
    15    7   33 1
    16    8    9 1
    17    8   34 1
    18    8   35 1
    19    9   10 1
    20    9   12 am
    21   10   11 1
    22   10   36 1
    23   10   37 1
    24   11   38 1
    25   11   39 1
    26   12   13 2
    27   12   14 am
    28   14   15 1
    29   14   40 1
    30   15   16 1
    31   15   41 1
    32   15   42 1
    33   16   20 1
    34   16   17 1
    35   16   21 1
    36   17   18 1
    37   17   43 1
    38   17   44 1
    39   18   19 1
    40   18   45 1
    41   18   46 1
    42   19   20 1
    43   20   47 1
    44   20   48 1
    45   21   26 1
    46   21   22 1
    47   22   23 1
    48   22   49 1
    49   22   50 1
    50   23   24 1
    51   23   51 1
    52   23   52 1
    53   24   25 1
    54   25   26 1
    55   25   53 1
    56   25   54 1
    57   26   55 1
    58   26   56 1
@<TRIPOS>MOLECULE
ZINC00795130
   40    42     0     0     0
SMALL
USER_CHARGES

@<TRIPOS>ATOM
      1 C1         -2.4241   -2.8310   -0.0075 C.3       1 <0>         0.0621
      2 N1         -1.1636   -2.0899   -0.0970 N.am      1 <0>        -0.5456
      3 C2         -1.1822   -0.7192   -0.1870 C.2       1 <0>         0.4683
      4 C3         -0.0010   -0.0358   -0.2702 C.2       1 <0>        -0.3763
      5 C4          1.2046   -0.7546   -0.2614 C.2       1 <0>         0.5625
      6 O1          2.2699   -0.1663   -0.3341 O.2       1 <0>        -0.5232
      7 N2          1.1773   -2.0989   -0.1717 N.am      1 <0>        -0.5606
      8 C5          0.0060   -2.7553   -0.0851 C.2       1 <0>         0.7086
      9 O2          0.0041   -3.9681    0.0005 O.2       1 <0>        -0.5336
     10 C6          2.4340   -2.8518   -0.1628 C.3       1 <0>         0.0796
     11 N3         -2.3750   -0.0424   -0.1939 N.pl3     1 <0>        -0.7036
     12 C7         -2.3936    1.4070   -0.4058 C.3       1 <0>         0.1291
     13 H1         -1.6104    1.7015   -1.1044 H         1 <0>         0.1528
     14 C8         -3.7757    1.8633   -0.9160 C.3       1 <0>        -0.1575
     15 C9         -4.2593    2.8057    0.1646 C.2       1 <0>         0.5294
     16 O3         -5.3186    3.3951    0.1598 O.2       1 <0>        -0.4518
     17 N4         -3.3320    2.8851    1.1270 N.am      1 <0>        -0.5312
     18 C10        -2.2374    2.1396    0.9090 C.2       1 <0>         0.5081
     19 O4         -1.2779    2.0628    1.6459 O.2       1 <0>        -0.4284
     20 C11        -3.4901    3.6837    2.2693 C.ar      1 <0>         0.1174
     21 C12        -4.0785    3.1562    3.4105 C.ar      1 <0>        -0.0717
     22 C13        -4.2327    3.9442    4.5342 C.ar      1 <0>        -0.0952
     23 C14        -3.8012    5.2591    4.5238 C.ar      1 <0>        -0.0095
     24 C15        -3.2143    5.7882    3.3881 C.ar      1 <0>        -0.0941
     25 C16        -3.0528    5.0022    2.2624 C.ar      1 <0>        -0.0070
     26 Cl1        -2.3100    5.6639    0.8398 Cl        1 <0>        -0.0376
     27 Cl2        -3.9973    6.2466    5.9381 Cl        1 <0>        -0.0406
     28 H2         -2.2184   -3.9013   -0.0258 H         1 <0>         0.1146
     29 H3         -2.9313   -2.5743    0.9225 H         1 <0>         0.0791
     30 H4         -3.0606   -2.5689   -0.8528 H         1 <0>         0.0834
     31 H5          0.0044    1.0418   -0.3419 H         1 <0>         0.1647
     32 H6          3.2728   -2.1596   -0.2359 H         1 <0>         0.1036
     33 H7          2.5110   -3.4194    0.7645 H         1 <0>         0.0770
     34 H8          2.4532   -3.5367   -1.0106 H         1 <0>         0.0775
     35 H9         -3.2063   -0.5235   -0.0583 H         1 <0>         0.4138
     36 H10        -3.6797    2.3871   -1.8671 H         1 <0>         0.1460
     37 H11        -4.4494    1.0118   -1.0121 H         1 <0>         0.1352
     38 H12        -4.4159    2.1303    3.4195 H         1 <0>         0.1464
     39 H13        -4.6908    3.5338    5.4220 H         1 <0>         0.1524
     40 H14        -2.8784    6.8146    3.3824 H         1 <0>         0.1560
@<TRIPOS>BOND
     1    1    2 1
     2    1   28 1
     3    1   29 1
     4    1   30 1
     5    2    8 am
     6    2    3 1
     7    3    4 2
     8    3   11 1
     9    4    5 1
    10    4   31 1
    11    5    6 2
    12    5    7 am
    13    7    8 am
    14    7   10 1
    15    8    9 2
    16   10   32 1
    17   10   33 1
    18   10   34 1
    19   11   12 1
    20   11   35 1
    21   12   13 1
    22   12   18 1
    23   12   14 1
    24   14   15 1
    25   14   36 1
    26   14   37 1
    27   15   16 2
    28   15   17 am
    29   17   18 am
    30   17   20 1
    31   18   19 2
    32   20   25 ar
    33   20   21 ar
    34   21   22 ar
    35   21   38 1
    36   22   23 ar
    37   22   39 1
    38   23   24 ar
    39   23   27 1
    40   24   25 ar
    41   24   40 1
    42   25   26 1
@<TRIPOS>MOLECULE
ZINC65717491
   52    54     0     0     0
SMALL
USER_CHARGES

@<TRIPOS>ATOM
      1 C1         -0.6747    1.2605    0.3199 C.3       1 <0>        -0.1431
      2 C2         -0.4269   -0.2455    0.2136 C.3       1 <0>         0.0718
      3 C3          0.3360   -0.5488   -1.0810 C.3       1 <0>         0.0257
      4 N1          0.7245   -1.9680   -1.0691 N.am      1 <0>        -0.5775
      5 C4          1.4090   -2.4878    0.1253 C.3       1 <0>         0.0845
      6 C5          0.5938   -2.0901    1.3611 C.3       1 <0>         0.1015
      7 O1          0.3505   -0.6816    1.3313 O.3       1 <0>        -0.3678
      8 C6         -0.7402   -2.8393    1.3562 C.3       1 <0>        -0.1771
      9 C7          1.3768   -2.4467    2.6263 C.3       1 <0>        -0.1376
     10 C8          0.4617   -2.7681   -2.1214 C.2       1 <0>         0.5110
     11 O2          0.7979   -3.9340   -2.0961 O.2       1 <0>        -0.5160
     12 C9         -0.2432   -2.2201   -3.3183 C.2       1 <0>         0.5114
     13 O3         -0.4739   -1.0308   -3.3951 O.2       1 <0>        -0.4892
     14 N2         -0.6232   -3.0459   -4.3134 N.am      1 <0>        -0.6346
     15 C10        -1.1788   -2.5204   -5.4847 C.ar      1 <0>         0.1090
     16 C11        -2.0961   -3.2666   -6.2140 C.ar      1 <0>        -0.1018
     17 C12        -2.6446   -2.7479   -7.3695 C.ar      1 <0>        -0.1328
     18 C13        -2.2791   -1.4798   -7.8035 C.ar      1 <0>         0.2067
     19 C14        -1.3619   -0.7336   -7.0742 C.ar      1 <0>        -0.1493
     20 C15        -0.8177   -1.2499   -5.9157 C.ar      1 <0>        -0.0780
     21 N3         -2.8342   -0.9547   -8.9746 N.pl3     1 <0>        -0.9308
     22 C16        -3.3893   -1.7113  -10.1113 C.3       1 <0>         0.0624
     23 C17        -4.4966   -0.9063  -10.8169 C.3       1 <0>        -0.1309
     24 C18        -3.9177    0.5330  -10.9655 C.3       1 <0>        -0.5885
     25 S1         -3.0115    0.6645   -9.3706 S.o2      1 <0>         2.5530
     26 O4         -3.8457    1.2133   -8.3596 O.2       1 <0>        -0.9400
     27 O5         -1.6928    1.1501   -9.5817 O.2       1 <0>        -0.9429
     28 H1          0.2800    1.7864    0.3252 H         1 <0>         0.0664
     29 H2         -1.2675    1.5923   -0.5325 H         1 <0>         0.0768
     30 H3         -1.2133    1.4759    1.2428 H         1 <0>         0.0679
     31 H4         -1.3814   -0.7719    0.2064 H         1 <0>         0.0658
     32 H5         -0.3052   -0.3509   -1.9399 H         1 <0>         0.1596
     33 H6          1.2278    0.0755   -1.1364 H         1 <0>         0.0803
     34 H7          1.4783   -3.5739    0.0652 H         1 <0>         0.1051
     35 H8          2.4088   -2.0587    0.1914 H         1 <0>         0.0841
     36 H9         -0.5539   -3.9131    1.3744 H         1 <0>         0.0701
     37 H10        -1.3192   -2.5560    2.2352 H         1 <0>         0.0690
     38 H11        -1.2978   -2.5825    0.4555 H         1 <0>         0.0576
     39 H12         2.3258   -1.9106    2.6295 H         1 <0>         0.0677
     40 H13         0.7966   -2.1637    3.5046 H         1 <0>         0.0709
     41 H14         1.5658   -3.5200    2.6462 H         1 <0>         0.0753
     42 H15        -0.5114   -4.0046   -4.2173 H         1 <0>         0.4243
     43 H16        -2.3797   -4.2527   -5.8770 H         1 <0>         0.1356
     44 H17        -3.3577   -3.3279   -7.9364 H         1 <0>         0.1345
     45 H18        -1.0778    0.2522   -7.4117 H         1 <0>         0.1328
     46 H19        -0.1077   -0.6682   -5.3466 H         1 <0>         0.1477
     47 H20        -2.5922   -1.9252  -10.8234 H         1 <0>         0.0897
     48 H21        -3.8051   -2.6510   -9.7479 H         1 <0>         0.1034
     49 H22        -4.7083   -1.3325  -11.7975 H         1 <0>         0.1203
     50 H23        -5.3999   -0.8901  -10.2071 H         1 <0>         0.0993
     51 H24        -3.2416    0.6031  -11.8177 H         1 <0>         0.1481
     52 H25        -4.7126    1.2760  -11.0303 H         1 <0>         0.1485
@<TRIPOS>BOND
     1    1    2 1
     2    1   28 1
     3    1   29 1
     4    1   30 1
     5    2    7 1
     6    2    3 1
     7    2   31 1
     8    3    4 1
     9    3   32 1
    10    3   33 1
    11    4    5 1
    12    4   10 am
    13    5    6 1
    14    5   34 1
    15    5   35 1
    16    6    7 1
    17    6    8 1
    18    6    9 1
    19    8   36 1
    20    8   37 1
    21    8   38 1
    22    9   39 1
    23    9   40 1
    24    9   41 1
    25   10   11 2
    26   10   12 1
    27   12   13 2
    28   12   14 am
    29   14   15 1
    30   14   42 1
    31   15   20 ar
    32   15   16 ar
    33   16   17 ar
    34   16   43 1
    35   17   18 ar
    36   17   44 1
    37   18   19 ar
    38   18   21 1
    39   19   20 ar
    40   19   45 1
    41   20   46 1
    42   21   25 1
    43   21   22 1
    44   22   23 1
    45   22   47 1
    46   22   48 1
    47   23   24 1
    48   23   49 1
    49   23   50 1
    50   24   25 1
    51   24   51 1
    52   24   52 1
    53   25   26 2
    54   25   27 2
@<TRIPOS>MOLECULE
ZINC00890109
   60    64     0     0     0
SMALL
USER_CHARGES
6,8-dimethyl-3-[morpholino-[1-(tetrahydrofuran-2-ylmethyl)tetrazol-5-yl]-methyl]-1H-quinolin-2-one
@<TRIPOS>ATOM
      1 C1         -2.4957    0.9710    0.0191 C.3       1 <0>        -0.1215
      2 C2         -1.2030    1.7456    0.0172 C.ar      1 <0>        -0.0988
      3 C3         -1.2327    3.1336    0.0298 C.ar      1 <0>        -0.0406
      4 C4         -0.0630    3.8622    0.0230 C.ar      1 <0>        -0.1216
      5 C5          1.1614    3.2019    0.0082 C.ar      1 <0>         0.1956
      6 C6          1.1875    1.7946    0.0004 C.ar      1 <0>        -0.1477
      7 C7         -0.0126    1.0758    0.0080 C.ar      1 <0>        -0.0521
      8 C8          2.4810    1.1090   -0.0152 C.2       1 <0>         0.0730
      9 C9          3.6112    1.8582   -0.0216 C.2       1 <0>        -0.2836
     10 C10         3.5300    3.2672   -0.0132 C.2       1 <0>         0.5414
     11 O1          4.5583    3.9216   -0.0190 O.2       1 <0>        -0.5239
     12 N1          2.3468    3.9057    0.0007 N.am      1 <0>        -0.6180
     13 H1          2.3264    4.9055    0.0057 H         1 <0>         0.4330
     14 C11         4.9588    1.1839   -0.0381 C.3       1 <0>         0.2181
     15 H2          4.8248    0.1063   -0.1326 H         1 <0>         0.1664
     16 C12         5.6888    1.4887    1.2446 C.2       1 <0>         0.1303
     17 N2          6.2638    2.6214    1.5676 N.2       1 <0>        -0.2509
     18 N3          6.7778    2.4862    2.7413 N.2       1 <0>        -0.0535
     19 N4          6.5456    1.2967    3.1754 N.2       1 <0>        -0.0584
     20 N5          5.8718    0.6526    2.2833 N.pl3     1 <0>        -0.2786
     21 C13         5.3980   -0.7303    2.3812 C.3       1 <0>         0.1025
     22 C14         6.4649   -1.6754    1.8249 C.3       1 <0>         0.0638
     23 H3          7.4126   -1.5206    2.3406 H         1 <0>         0.0969
     24 C15         6.0063   -3.1484    1.9689 C.3       1 <0>        -0.1461
     25 C16         6.8281   -3.8249    0.8380 C.3       1 <0>        -0.1550
     26 C17         6.8740   -2.7203   -0.2394 C.3       1 <0>         0.0485
     27 O2          6.6262   -1.4692    0.4125 O.3       1 <0>        -0.4016
     28 C18         5.0193    1.4788   -2.4415 C.3       1 <0>        -0.0365
     29 C19         5.8420    2.0641   -3.5924 C.3       1 <0>         0.0383
     30 O3          7.1361    1.4555   -3.6044 O.3       1 <0>        -0.3536
     31 C20         7.8676    1.6341   -2.3885 C.3       1 <0>         0.0389
     32 C21         7.0655    1.0445   -1.2254 C.3       1 <0>        -0.0351
     33 C22        -0.1100    5.3684    0.0321 C.3       1 <0>        -0.1232
     34 H4         -2.8025    0.7786    1.0472 H         1 <0>         0.0788
     35 H5         -3.2672    1.5504   -0.4880 H         1 <0>         0.0750
     36 H6         -2.3523    0.0236   -0.5006 H         1 <0>         0.0734
     37 H7         -2.1824    3.6477    0.0414 H         1 <0>         0.1432
     38 H8          0.0021   -0.0041    0.0020 H         1 <0>         0.1427
     39 H9          2.5338    0.0303   -0.0212 H         1 <0>         0.1579
     40 H10         5.2047   -0.9750    3.4256 H         1 <0>         0.1416
     41 H11         4.4789   -0.8410    1.8059 H         1 <0>         0.1167
     42 H12         6.2766   -3.5504    2.9453 H         1 <0>         0.0997
     43 H13         4.9357   -3.2459    1.7887 H         1 <0>         0.0887
     44 H14         6.3161   -4.7112    0.4634 H         1 <0>         0.0943
     45 H15         7.8321   -4.0724    1.1829 H         1 <0>         0.0857
     46 H16         6.1059   -2.9043   -0.9906 H         1 <0>         0.0785
     47 H17         7.8569   -2.7036   -0.7103 H         1 <0>         0.0795
     48 H18         4.8687    0.4121   -2.6075 H         1 <0>         0.1425
     49 H19         4.0528    1.9804   -2.3932 H         1 <0>         0.1340
     50 H20         5.9471    3.1402   -3.4543 H         1 <0>         0.0825
     51 H21         5.3379    1.8661   -4.5384 H         1 <0>         0.1445
     52 H22         8.0316    2.6977   -2.2153 H         1 <0>         0.0833
     53 H23         8.8282    1.1245   -2.4634 H         1 <0>         0.1433
     54 H24         7.5925    1.2290   -0.2893 H         1 <0>         0.1291
     55 H25         6.9475   -0.0292   -1.3719 H         1 <0>         0.1476
     56 H26        -0.1306    5.7375   -0.9933 H         1 <0>         0.0834
     57 H27        -1.0063    5.7008    0.5560 H         1 <0>         0.0861
     58 H28         0.7728    5.7565    0.5403 H         1 <0>         0.0653
     59 N6          5.7457    1.7085   -1.1752 N.4       1 <0>        -0.3880
     60 H29         5.8840    2.7179   -1.0478 H         1 <0>         0.4442
@<TRIPOS>BOND
     1    1    2 1
     2    1   34 1
     3    1   35 1
     4    1   36 1
     5    2    7 ar
     6    2    3 ar
     7    3    4 ar
     8    3   37 1
     9    4    5 ar
    10    4   33 1
    11    5   12 1
    12    5    6 ar
    13    6    7 ar
    14    6    8 1
    15    7   38 1
    16    8    9 2
    17    8   39 1
    18    9   10 1
    19    9   14 1
    20   10   11 2
    21   10   12 am
    22   12   13 1
    23   14   15 1
    24   14   16 1
    25   14   59 1
    26   16   20 1
    27   16   17 2
    28   17   18 1
    29   18   19 2
    30   19   20 1
    31   20   21 1
    32   21   22 1
    33   21   40 1
    34   21   41 1
    35   22   23 1
    36   22   27 1
    37   22   24 1
    38   24   25 1
    39   24   42 1
    40   24   43 1
    41   25   26 1
    42   25   44 1
    43   25   45 1
    44   26   27 1
    45   26   46 1
    46   26   47 1
    47   28   29 1
    48   28   48 1
    49   28   49 1
    50   28   59 1
    51   29   30 1
    52   29   50 1
    53   29   51 1
    54   30   31 1
    55   31   32 1
    56   31   52 1
    57   31   53 1
    58   32   54 1
    59   32   55 1
    60   32   59 1
    61   33   56 1
    62   33   57 1
    63   33   58 1
    64   59   60 1
@<TRIPOS>MOLECULE
ZINC29750221
   46    49     0     0     0
SMALL
USER_CHARGES
N-[4-[(5-cyano-3-cyclopropyl-2,6-dioxo-pyrimidin-1-yl)methyl]-2-oxo-chromen-7-yl]acetamide
@<TRIPOS>ATOM
      1 C1         -0.6152    1.5071   -2.1644 C.3       1 <0>        -0.1748
      2 C2         -0.6051    0.0001   -2.1677 C.2       1 <0>         0.5196
      3 O1         -1.1432   -0.6080   -3.0685 O.2       1 <0>        -0.5187
      4 N1          0.0019   -0.6719   -1.1694 N.am      1 <0>        -0.6871
      5 C3         -0.0697   -2.0644   -1.1215 C.2       1 <0>         0.2484
      6 C4         -0.1374   -2.7118    0.1123 C.2       1 <0>        -0.1385
      7 C5         -0.2132   -4.0726    0.1750 C.2       1 <0>        -0.0169
      8 C6         -0.2113   -4.8249   -1.0056 C.2       1 <0>        -0.1732
      9 C7         -0.2857   -6.2868   -0.9674 C.2       1 <0>         0.1337
     10 C8         -0.2804   -6.9608   -2.1470 C.2       1 <0>        -0.2752
     11 C9         -0.2046   -6.2484   -3.3614 C.2       1 <0>         0.5349
     12 O2         -0.2007   -6.8649   -4.4118 O.3       1 <0>        -0.3440
     13 O3         -0.1371   -4.9081   -3.3896 O.3       1 <0>        -0.2350
     14 C10        -0.1378   -4.1783   -2.2535 C.2       1 <0>         0.1670
     15 C11        -0.0671   -2.7944   -2.3004 C.2       1 <0>        -0.1394
     16 C12        -0.3664   -7.0237    0.3447 C.3       1 <0>         0.1242
     17 N2         -0.3087   -8.4667    0.0987 N.am      1 <0>        -0.5595
     18 C13        -1.4526   -9.1763    0.0014 C.2       1 <0>         0.5638
     19 O4         -2.5343   -8.6307    0.1158 O.2       1 <0>        -0.4740
     20 C14        -1.3633  -10.6236   -0.2510 C.2       1 <0>        -0.1938
     21 C15        -0.1086  -11.1873   -0.3660 C.2       1 <0>         0.2274
     22 N3          0.9907  -10.3948   -0.2483 N.am      1 <0>        -0.5121
     23 C16         0.8831   -9.0759   -0.0231 C.2       1 <0>         0.6966
     24 O5          1.8962   -8.4110    0.0735 O.2       1 <0>        -0.5128
     25 C17         2.3219  -10.9942   -0.3705 C.3       1 <0>        -0.0332
     26 C18         2.4009  -12.4529   -0.8254 C.3       1 <0>        -0.1183
     27 C19         2.6987  -12.0883    0.6304 C.3       1 <0>        -0.1230
     28 C20        -2.5443  -11.4250   -0.3685 C.1       1 <0>         0.2659
     29 N4         -3.4811  -12.0607   -0.4618 N.1       1 <0>        -0.3777
     30 H1         -0.0823    1.8754   -1.2754 H         1 <0>         0.0872
     31 H2         -1.6545    1.8667   -2.1441 H         1 <0>         0.1093
     32 H3         -0.1161    1.8791   -3.0714 H         1 <0>         0.1087
     33 H4          0.5537   -0.1225   -0.3925 H         1 <0>         0.4565
     34 H5         -0.1345   -2.1320    1.0235 H         1 <0>         0.1613
     35 H6         -0.2697   -4.5682    1.1329 H         1 <0>         0.1628
     36 H7         -0.3337   -8.0395   -2.1544 H         1 <0>         0.1785
     37 H8         -0.0107   -2.2867   -3.2519 H         1 <0>         0.1738
     38 H9          0.4777   -6.7268    0.9845 H         1 <0>         0.1565
     39 H10        -1.3127   -6.7750    0.8474 H         1 <0>         0.1630
     40 H11        -0.0009  -12.2464   -0.5479 H         1 <0>         0.1988
     41 H12         2.7513  -10.0360   -0.6983 H         1 <0>         0.1663
     42 H13         1.4205  -12.7707   -1.2099 H         1 <0>         0.1125
     43 H14         3.1551  -12.5488   -1.6204 H         1 <0>         0.1296
     44 H15         3.6991  -11.8828    1.0389 H         1 <0>         0.1282
     45 H16         1.9645  -12.1047    1.4494 H         1 <0>         0.1142
     46 H17        -0.1420   -6.3231   -5.3673 H         1 <0>         0.5183
@<TRIPOS>BOND
     1    1    2 1
     2    1   30 1
     3    1   31 1
     4    1   32 1
     5    2    3 2
     6    2    4 am
     7    4    5 2
     8    4   33 1
     9    5   15 1
    10    5    6 1
    11    6    7 2
    12    6   34 1
    13    7    8 1
    14    7   35 1
    15    8   14 1
    16    8    9 2
    17    9   10 1
    18    9   16 1
    19   10   11 2
    20   10   36 1
    21   11   12 1
    22   11   13 1
    23   12   46 1
    24   13   14 1
    25   14   15 2
    26   15   37 1
    27   16   17 1
    28   16   38 1
    29   16   39 1
    30   17   23 am
    31   17   18 am
    32   18   19 2
    33   18   20 1
    34   20   21 2
    35   20   28 1
    36   21   22 1
    37   21   40 1
    38   22   23 am
    39   22   25 1
    40   23   24 2
    41   25   27 1
    42   25   26 1
    43   25   41 1
    44   26   27 1
    45   26   42 1
    46   26   43 1
    47   27   44 1
    48   27   45 1
    49   28   29 3
@<TRIPOS>MOLECULE
ZINC13660082
   44    47     0     0     0
SMALL
USER_CHARGES

@<TRIPOS>ATOM
      1 C1         -2.0182   -1.6996    5.3192 C.3       1 <0>        -0.1249
      2 C2         -1.5009   -2.4992    4.1512 C.ar      1 <0>        -0.0655
      3 C3         -2.0092   -2.2779    2.8844 C.ar      1 <0>        -0.0951
      4 C4         -1.5373   -3.0091    1.8120 C.ar      1 <0>        -0.0865
      5 C5         -0.5513   -3.9673    2.0069 C.ar      1 <0>         0.0785
      6 C6         -0.0429   -4.1872    3.2803 C.ar      1 <0>        -0.1192
      7 C7         -0.5150   -3.4487    4.3477 C.ar      1 <0>        -0.1150
      8 N1         -0.0709   -4.7109    0.9215 N.pl3     1 <0>        -0.3660
      9 C8         -0.8327   -5.3973    0.0312 C.2       1 <0>         0.0910
     10 C9         -0.0202   -5.9930   -0.8782 C.2       1 <0>        -0.1986
     11 C10         1.2988   -5.6738   -0.5536 C.2       1 <0>        -0.0624
     12 C11         1.2567   -4.8642    0.5733 C.2       1 <0>        -0.0660
     13 C12         2.3632   -4.3051    1.2399 C.2       1 <0>         0.2085
     14 C13         2.3877   -2.9501    1.5249 C.2       1 <0>        -0.3298
     15 C14         3.4682   -2.3398    2.3478 C.cat     1 <0>         0.6109
     16 N2          4.7012   -2.7738    2.3529 N.pl3     1 <0>        -0.6662
     17 N3          3.0272   -1.2469    3.1205 N.pl3     1 <0>        -0.4933
     18 C15         1.8985   -0.5678    2.7119 C.2       1 <0>         0.2763
     19 N4          1.1095   -0.8911    1.7127 N.2       1 <0>        -0.4718
     20 C16         1.3440   -2.0269    1.0229 C.2       1 <0>         0.5443
     21 O1          0.7103   -2.2901    0.0132 O.2       1 <0>        -0.3882
     22 S1          1.8037    0.6986    3.7917 S.3       1 <0>         0.5087
     23 N5          3.0940    0.3048    4.7867 N.2       1 <0>        -0.3002
     24 C17         3.6001   -0.7603    4.2465 C.2       1 <0>        -0.2580
     25 S2          5.0002   -1.5557    4.9617 S.o2      1 <0>         2.4672
     26 O2          4.9996   -1.1384    6.3201 O.2       1 <0>        -0.8332
     27 O3          4.8488   -2.9280    4.6254 O.2       1 <0>        -0.9067
     28 C18         6.4295   -0.8536    4.0930 C.3       1 <0>        -0.6477
     29 H1         -1.4224   -0.7937    5.4316 H         1 <0>         0.0768
     30 H2         -3.0594   -1.4300    5.1423 H         1 <0>         0.0788
     31 H3         -1.9468   -2.2966    6.2284 H         1 <0>         0.0748
     32 H4         -2.7763   -1.5328    2.7335 H         1 <0>         0.1414
     33 H5         -1.9349   -2.8361    0.8228 H         1 <0>         0.1384
     34 H6          0.7237   -4.9319    3.4351 H         1 <0>         0.1265
     35 H7         -0.1167   -3.6159    5.3375 H         1 <0>         0.1348
     36 H8         -1.9108   -5.4591    0.0446 H         1 <0>         0.1831
     37 H9         -0.3387   -6.6072   -1.7075 H         1 <0>         0.1633
     38 H10         2.1850   -5.9926   -1.0821 H         1 <0>         0.1634
     39 H11         3.1931   -4.9329    1.5291 H         1 <0>         0.1702
     40 H12         4.9316   -3.5855    1.8745 H         1 <0>         0.4647
     41 H13         6.5268    0.2019    4.3474 H         1 <0>         0.1735
     42 H14         7.3333   -1.3842    4.3925 H         1 <0>         0.1778
     43 H15         6.2874   -0.9564    3.0173 H         1 <0>         0.1276
     44 H16         5.3857   -2.2842    2.8351 H         1 <0>         0.4142
@<TRIPOS>BOND
     1    1    2 1
     2    1   29 1
     3    1   30 1
     4    1   31 1
     5    2    7 ar
     6    2    3 ar
     7    3    4 ar
     8    3   32 1
     9    4    5 ar
    10    4   33 1
    11    5    6 ar
    12    5    8 1
    13    6    7 ar
    14    6   34 1
    15    7   35 1
    16    8   12 1
    17    8    9 1
    18    9   10 2
    19    9   36 1
    20   10   11 1
    21   10   37 1
    22   11   12 2
    23   11   38 1
    24   12   13 1
    25   13   14 2
    26   13   39 1
    27   14   20 1
    28   14   15 1
    29   15   16 2
    30   15   17 1
    31   16   40 1
    32   16   44 1
    33   17   24 1
    34   17   18 1
    35   18   19 2
    36   18   22 1
    37   19   20 1
    38   20   21 2
    39   22   23 1
    40   23   24 2
    41   24   25 1
    42   25   26 2
    43   25   27 2
    44   25   28 1
    45   28   41 1
    46   28   42 1
    47   28   43 1
@<TRIPOS>MOLECULE
ZINC63362246
   57    61     0     0     0
SMALL
USER_CHARGES

@<TRIPOS>ATOM
      1 C1         -0.0187    1.5258    0.0104 C.3       1 <0>        -0.1663
      2 C2          0.0021   -0.0041    0.0020 C.3       1 <0>         0.1279
      3 H1          0.5293   -0.3651    0.8851 H         1 <0>         0.1374
      4 C3         -1.4117   -0.5257    0.0127 C.2       1 <0>         0.5078
      5 O1         -1.8076   -1.2234   -0.8969 O.2       1 <0>        -0.5207
      6 N1         -2.2363   -0.2169    1.0331 N.am      1 <0>        -0.7135
      7 C4         -3.6107   -0.7239    1.0435 C.3       1 <0>         0.1115
      8 C5         -4.3268   -0.2305    2.3023 C.3       1 <0>         0.0671
      9 H2         -3.7499   -0.5022    3.1863 H         1 <0>         0.0895
     10 C6         -5.7353   -0.8573    2.3832 C.3       1 <0>        -0.1486
     11 C7         -6.5918    0.3242    2.9149 C.3       1 <0>        -0.1566
     12 C8         -5.8853    1.5267    2.2398 C.3       1 <0>         0.0488
     13 O2         -4.4866    1.1917    2.2446 O.3       1 <0>        -0.3772
     14 N2          0.6878   -0.4765   -1.2033 N.am      1 <0>        -0.5536
     15 C9          1.7965   -1.2446   -1.1922 C.2       1 <0>         0.5317
     16 O3          2.4063   -1.6351   -0.2199 O.2       1 <0>        -0.4484
     17 C10         2.1212   -1.5188   -2.6446 C.3       1 <0>         0.1285
     18 C11         3.4964   -0.9387   -2.9954 C.3       1 <0>         0.0955
     19 H3          3.6584    0.0114   -2.4862 H         1 <0>         0.1777
     20 C12         3.5145   -0.7563   -4.5084 C.2       1 <0>         0.0660
     21 C13         4.5515   -1.4575   -4.9568 C.ar      1 <0>        -0.1571
     22 C14         5.1102   -1.6186   -6.3088 C.ar      1 <0>         0.0026
     23 C15         6.1927   -2.4339   -6.4159 C.ar      1 <0>        -0.1574
     24 C16         6.7675   -3.0966   -5.3270 C.ar      1 <0>         0.0598
     25 C17         6.3215   -3.0019   -4.0489 C.ar      1 <0>        -0.2058
     26 C18         5.1894   -2.1696   -3.8087 C.ar      1 <0>         0.3380
     27 N3          4.5702   -1.8863   -2.6870 N.pl3     1 <0>        -0.5772
     28 C19         2.4691    0.0311   -5.2600 C.3       1 <0>        -0.1049
     29 C20         1.0923   -0.5098   -4.8249 C.3       1 <0>         0.1476
     30 N4          1.1165   -0.7116   -3.3732 N.am      1 <0>        -0.6227
     31 C21         0.2876   -0.2037   -2.4523 C.2       1 <0>         0.7137
     32 O4         -0.7115    0.4348   -2.7189 O.2       1 <0>        -0.4865
     33 C22         2.0162   -3.0073   -2.9826 C.3       1 <0>        -0.1545
     34 H4          1.0039    1.9031    0.0027 H         1 <0>         0.0754
     35 H5         -0.5459    1.8868   -0.8726 H         1 <0>         0.0851
     36 H6         -0.5289    1.8773    0.9072 H         1 <0>         0.0921
     37 H7         -1.9197    0.3412    1.7606 H         1 <0>         0.4066
     38 H8         -4.1378   -0.3629    0.1605 H         1 <0>         0.0770
     39 H9         -3.5959   -1.8138    1.0375 H         1 <0>         0.0808
     40 H10        -6.0774   -1.1714    1.3971 H         1 <0>         0.0828
     41 H11        -5.7488   -1.6922    3.0838 H         1 <0>         0.0888
     42 H12        -7.6266    0.2397    2.5831 H         1 <0>         0.0883
     43 H13        -6.5338    0.3938    4.0011 H         1 <0>         0.0820
     44 H14        -6.2421    1.6497    1.2172 H         1 <0>         0.0632
     45 H15        -6.0574    2.4374    2.8135 H         1 <0>         0.0899
     46 H16         4.6847   -1.1183   -7.1662 H         1 <0>         0.1725
     47 H17         6.6311   -2.5774   -7.3924 H         1 <0>         0.1571
     48 H18         7.6241   -3.7266   -5.5160 H         1 <0>         0.1599
     49 H19         6.8052   -3.5367   -3.2449 H         1 <0>         0.1710
     50 H20         2.5488    1.0887   -5.0088 H         1 <0>         0.1307
     51 H21         2.6002   -0.1075   -6.3332 H         1 <0>         0.1314
     52 H22         0.3160    0.2105   -5.0830 H         1 <0>         0.1316
     53 H23         0.8953   -1.4583   -5.3247 H         1 <0>         0.0986
     54 H24         1.0041   -3.3560   -2.7773 H         1 <0>         0.0994
     55 H25         2.2453   -3.1573   -4.0376 H         1 <0>         0.0860
     56 H26         2.7246   -3.5690   -2.3736 H         1 <0>         0.0885
     57 H27         4.7790   -2.2399   -1.8082 H         1 <0>         0.4612
@<TRIPOS>BOND
     1    1    2 1
     2    1   34 1
     3    1   35 1
     4    1   36 1
     5    2    3 1
     6    2    4 1
     7    2   14 1
     8    4    5 2
     9    4    6 am
    10    6    7 1
    11    6   37 1
    12    7    8 1
    13    7   38 1
    14    7   39 1
    15    8    9 1
    16    8   13 1
    17    8   10 1
    18   10   11 1
    19   10   40 1
    20   10   41 1
    21   11   12 1
    22   11   42 1
    23   11   43 1
    24   12   13 1
    25   12   44 1
    26   12   45 1
    27   14   31 am
    28   14   15 am
    29   15   16 2
    30   15   17 1
    31   17   30 1
    32   17   18 1
    33   17   33 1
    34   18   19 1
    35   18   27 1
    36   18   20 1
    37   20   21 2
    38   20   28 1
    39   21   26 ar
    40   21   22 ar
    41   22   23 ar
    42   22   46 1
    43   23   24 ar
    44   23   47 1
    45   24   25 ar
    46   24   48 1
    47   25   26 ar
    48   25   49 1
    49   26   27 2
    50   27   57 1
    51   28   29 1
    52   28   50 1
    53   28   51 1
    54   29   30 1
    55   29   52 1
    56   29   53 1
    57   30   31 am
    58   31   32 2
    59   33   54 1
    60   33   55 1
    61   33   56 1
@<TRIPOS>MOLECULE
ZINC64491629
   55    59     0     0     0
SMALL
USER_CHARGES

@<TRIPOS>ATOM
      1 C1         -0.0187    1.5258    0.0104 C.3       1 <0>        -0.1768
      2 C2          0.0021   -0.0041    0.0020 C.3       1 <0>         0.0770
      3 H1         -1.0207   -0.3809    0.0098 H         1 <0>         0.1607
      4 C3          0.7064   -0.4896   -1.2393 C.2       1 <0>         0.4942
      5 O1          0.0736   -0.7175   -2.2488 O.2       1 <0>        -0.4911
      6 N1          2.0451   -0.6693   -1.2230 N.am      1 <0>        -0.6611
      7 C4          2.7478   -0.4329   -0.0329 C.ar      1 <0>         0.0793
      8 C5          4.1256   -0.2913   -0.0407 C.ar      1 <0>        -0.0272
      9 C6          4.7997   -0.0596    1.1443 C.ar      1 <0>        -0.6782
     10 C7          4.1023    0.0306    2.3350 C.ar      1 <0>        -0.0103
     11 C8          2.7263   -0.1091    2.3492 C.ar      1 <0>        -0.1271
     12 C9          2.0447   -0.3402    1.1672 C.ar      1 <0>         0.1433
     13 O2          0.6924   -0.4771    1.1615 O.3       1 <0>        -0.2914
     14 S1          6.5524    0.1208    1.1371 S.o2      1 <0>         2.6918
     15 O3          7.0004   -0.2131    2.4436 O.2       1 <0>        -0.9399
     16 O4          7.0247   -0.5480   -0.0244 O.2       1 <0>        -0.9395
     17 N2          6.8781    1.7301    0.9218 N.pl3     1 <0>        -0.9986
     18 C10         7.0315    2.2881   -0.4291 C.3       1 <0>         0.1037
     19 C11         6.0500    3.4554   -0.5915 C.3       1 <0>         0.0946
     20 N3          6.1904    4.3514    0.5650 N.am      1 <0>        -0.5890
     21 C12         6.0370    3.7934    1.9159 C.3       1 <0>         0.0670
     22 C13         7.0129    2.6272    2.0781 C.3       1 <0>         0.0993
     23 C14         6.4554    5.6611    0.3898 C.2       1 <0>         0.5274
     24 O5          6.5803    6.1101   -0.7299 O.2       1 <0>        -0.4968
     25 C15         6.5967    6.5678    1.5853 C.3       1 <0>         0.0667
     26 H2          5.6787    6.5596    2.1730 H         1 <0>         0.1988
     27 C16         7.7656    6.1277    2.4381 C.2       1 <0>         0.0180
     28 C17         8.6284    7.1691    2.4574 C.ar      1 <0>        -0.1413
     29 C18         9.9324    7.3681    3.1011 C.ar      1 <0>        -0.0164
     30 C19        10.5731    8.5475    2.9345 C.ar      1 <0>        -0.1440
     31 C20        10.0242    9.5820    2.1643 C.ar      1 <0>         0.0627
     32 C21         8.8311    9.4739    1.5423 C.ar      1 <0>        -0.2083
     33 C22         8.0705    8.2770    1.6494 C.ar      1 <0>         0.3389
     34 N4          6.9062    7.9342    1.1499 N.pl3     1 <0>        -0.5575
     35 H3          1.0039    1.9031    0.0027 H         1 <0>         0.0627
     36 H4         -0.5459    1.8868   -0.8726 H         1 <0>         0.0891
     37 H5         -0.5289    1.8773    0.9072 H         1 <0>         0.0908
     38 H6          2.5131   -0.9579   -2.0221 H         1 <0>         0.4216
     39 H7          4.6720   -0.3621   -0.9696 H         1 <0>         0.1506
     40 H8          4.6343    0.2105    3.2576 H         1 <0>         0.1527
     41 H9          2.1849   -0.0383    3.2810 H         1 <0>         0.1539
     42 H10         8.0520    2.6468   -0.5630 H         1 <0>         0.0887
     43 H11         6.8112    1.5192   -1.1696 H         1 <0>         0.1153
     44 H12         6.2789    4.0011   -1.5069 H         1 <0>         0.1151
     45 H13         5.0304    3.0726   -0.6361 H         1 <0>         0.0899
     46 H14         6.2573    4.5623    2.6565 H         1 <0>         0.0963
     47 H15         5.0165    3.4346    2.0499 H         1 <0>         0.1016
     48 H16         6.7804    2.0821    2.9930 H         1 <0>         0.1194
     49 H17         8.0321    3.0106    2.1268 H         1 <0>         0.0855
     50 H18         7.8868    5.1748    2.9317 H         1 <0>         0.2157
     51 H19        10.3736    6.5845    3.6992 H         1 <0>         0.1682
     52 H20        11.5325    8.6962    3.4076 H         1 <0>         0.1625
     53 H21        10.5785   10.5035    2.0648 H         1 <0>         0.1653
     54 H22         8.4521   10.3009    0.9602 H         1 <0>         0.1648
     55 H23         6.3446    8.4900    0.5873 H         1 <0>         0.4613
@<TRIPOS>BOND
     1    1    2 1
     2    1   35 1
     3    1   36 1
     4    1   37 1
     5    2    3 1
     6    2   13 1
     7    2    4 1
     8    4    5 2
     9    4    6 am
    10    6    7 1
    11    6   38 1
    12    7   12 ar
    13    7    8 ar
    14    8    9 ar
    15    8   39 1
    16    9   10 ar
    17    9   14 1
    18   10   11 ar
    19   10   40 1
    20   11   12 ar
    21   11   41 1
    22   12   13 1
    23   14   15 2
    24   14   16 2
    25   14   17 1
    26   17   22 1
    27   17   18 1
    28   18   19 1
    29   18   42 1
    30   18   43 1
    31   19   20 1
    32   19   44 1
    33   19   45 1
    34   20   21 1
    35   20   23 am
    36   21   22 1
    37   21   46 1
    38   21   47 1
    39   22   48 1
    40   22   49 1
    41   23   24 2
    42   23   25 1
    43   25   26 1
    44   25   34 1
    45   25   27 1
    46   27   28 2
    47   27   50 1
    48   28   33 ar
    49   28   29 ar
    50   29   30 ar
    51   29   51 1
    52   30   31 ar
    53   30   52 1
    54   31   32 ar
    55   31   53 1
    56   32   33 ar
    57   32   54 1
    58   33   34 2
    59   34   55 1
@<TRIPOS>MOLECULE
ZINC09395457
   53    56     0     0     0
SMALL
USER_CHARGES
N-(3-methyl-1,1-dioxo-thiolan-3-yl)-2-(oxo-propyl-BLAHyl)sulfanyl-acetamide
@<TRIPOS>ATOM
      1 C1         -4.2635    5.3038   -1.3725 C.3       1 <0>        -0.1474
      2 C2         -2.9537    4.5133   -1.3891 C.3       1 <0>        -0.1390
      3 C3         -2.5034    4.2420    0.0477 C.3       1 <0>         0.1101
      4 N1         -1.2492    3.4851    0.0318 N.am      1 <0>        -0.5108
      5 C4         -1.2876    2.1371    0.0197 C.2       1 <0>         0.5689
      6 O1         -2.3520    1.5482    0.0214 O.2       1 <0>        -0.4855
      7 C5         -0.0168    1.3896    0.0097 C.ar      1 <0>        -0.1610
      8 C6          0.0021   -0.0041    0.0020 C.ar      1 <0>        -0.0215
      9 C7          1.2103   -0.6686   -0.0131 C.ar      1 <0>        -0.1282
     10 C8          2.4004    0.0418   -0.0207 C.ar      1 <0>        -0.0489
     11 C9          2.3944    1.4226   -0.0128 C.ar      1 <0>        -0.1347
     12 C10         1.1888    2.1073    0.0020 C.ar      1 <0>         0.1652
     13 N2          1.1540    3.5003    0.0095 N.pl3     1 <0>        -0.4417
     14 C11        -0.0413    4.1659    0.0240 C.2       1 <0>         0.4632
     15 N3          0.2167    5.4546    0.0283 N.2       1 <0>        -0.3071
     16 N4          1.6067    5.6205    0.0162 N.2       1 <0>        -0.2835
     17 C12         2.1575    4.4312    0.0049 C.2       1 <0>         0.1971
     18 S1          3.8862    4.0906   -0.0138 S.3       1 <0>         0.1006
     19 C13         4.6570    5.7327   -0.0121 C.3       1 <0>        -0.1650
     20 C14         6.1566    5.5837   -0.0275 C.2       1 <0>         0.5421
     21 O2          6.6561    4.4786   -0.0386 O.2       1 <0>        -0.5142
     22 N5          6.9426    6.6785   -0.0290 N.am      1 <0>        -0.7150
     23 C15         8.4003    6.5337   -0.0440 C.3       1 <0>         0.1839
     24 C16         8.8192    5.6740    1.1477 C.3       1 <0>        -0.1423
     25 C17        10.2583    6.0465    1.6016 C.3       1 <0>        -0.5613
     26 S2         10.1794    7.8805    1.3997 S.o2      1 <0>         2.3670
     27 O3         11.4561    8.3623    1.0033 O.2       1 <0>        -0.9305
     28 O4          9.5338    8.4489    2.5308 O.2       1 <0>        -0.9250
     29 C18         9.0361    7.9376   -0.0424 C.3       1 <0>        -0.5907
     30 C19         8.8066    5.8130   -1.3311 C.3       1 <0>        -0.1718
     31 H1         -4.1099    6.2507   -0.8549 H         1 <0>         0.0605
     32 H2         -4.5843    5.4971   -2.3961 H         1 <0>         0.0625
     33 H3         -5.0296    4.7268   -0.8545 H         1 <0>         0.0597
     34 H4         -2.1876    5.0903   -1.9071 H         1 <0>         0.0689
     35 H5         -3.1073    3.5664   -1.9067 H         1 <0>         0.0686
     36 H6         -3.2695    3.6650    0.5657 H         1 <0>         0.1054
     37 H7         -2.3498    5.1889    0.5653 H         1 <0>         0.1010
     38 H8         -0.9238   -0.5601    0.0083 H         1 <0>         0.1538
     39 H9          1.2294   -1.7484   -0.0195 H         1 <0>         0.1469
     40 H10         3.3407   -0.4893   -0.0326 H         1 <0>         0.1480
     41 H11         3.3266    1.9680   -0.0181 H         1 <0>         0.1443
     42 H12         4.3377    6.2849   -0.8959 H         1 <0>         0.1315
     43 H13         4.3550    6.2749    0.8839 H         1 <0>         0.1322
     44 H14         6.5431    7.5624   -0.0202 H         1 <0>         0.4098
     45 H15         8.1266    5.8394    1.9729 H         1 <0>         0.0925
     46 H16         8.7923    4.6227    0.8611 H         1 <0>         0.1208
     47 H17        11.0086    5.6064    0.9448 H         1 <0>         0.1426
     48 H18        10.4324    5.7684    2.6410 H         1 <0>         0.1461
     49 H19         9.5895    8.1104   -0.9654 H         1 <0>         0.1547
     50 H20         8.2749    8.7045    0.1004 H         1 <0>         0.1477
     51 H21         8.4942    6.4035   -2.1923 H         1 <0>         0.0674
     52 H22         9.8891    5.6867   -1.3505 H         1 <0>         0.0739
     53 H23         8.3261    4.8353   -1.3672 H         1 <0>         0.0883
@<TRIPOS>BOND
     1    1    2 1
     2    1   31 1
     3    1   32 1
     4    1   33 1
     5    2    3 1
     6    2   34 1
     7    2   35 1
     8    3    4 1
     9    3   36 1
    10    3   37 1
    11    4   14 1
    12    4    5 am
    13    5    6 2
    14    5    7 1
    15    7   12 ar
    16    7    8 ar
    17    8    9 ar
    18    8   38 1
    19    9   10 ar
    20    9   39 1
    21   10   11 ar
    22   10   40 1
    23   11   12 ar
    24   11   41 1
    25   12   13 1
    26   13   17 1
    27   13   14 1
    28   14   15 2
    29   15   16 1
    30   16   17 2
    31   17   18 1
    32   18   19 1
    33   19   20 1
    34   19   42 1
    35   19   43 1
    36   20   21 2
    37   20   22 am
    38   22   23 1
    39   22   44 1
    40   23   29 1
    41   23   24 1
    42   23   30 1
    43   24   25 1
    44   24   45 1
    45   24   46 1
    46   25   26 1
    47   25   47 1
    48   25   48 1
    49   26   27 2
    50   26   28 2
    51   26   29 1
    52   29   49 1
    53   29   50 1
    54   30   51 1
    55   30   52 1
    56   30   53 1
@<TRIPOS>MOLECULE
ZINC17063615
   59    62     0     0     0
SMALL
USER_CHARGES
(2S)-1-[4-(2,5-dimethylphenyl)sulfonylpiperazin-1-yl]-2-[(1,1-dioxo-1,2-benzothiazol-3-yl)amino]propan-1-one
@<TRIPOS>ATOM
      1 C1         11.4356   10.4928   -2.6230 C.3       1 <0>        -0.1181
      2 C2         11.3031    8.9934   -2.5483 C.ar      1 <0>        -0.1094
      3 C3         11.4963    8.2251   -3.6813 C.ar      1 <0>        -0.0591
      4 C4         11.3743    6.8501   -3.6129 C.ar      1 <0>        -0.1370
      5 C5         11.0591    6.2429   -2.4115 C.ar      1 <0>         0.0151
      6 C6         10.8669    7.0109   -1.2786 C.ar      1 <0>        -0.6770
      7 C7         10.9842    8.3868   -1.3480 C.ar      1 <0>        -0.0196
      8 S1         10.4652    6.2372    0.2526 S.o2      1 <0>         2.6915
      9 O1         10.4035    7.2706    1.2260 O.2       1 <0>        -0.9511
     10 O2         11.3326    5.1191    0.3825 O.2       1 <0>        -0.9474
     11 N1          8.9308    5.6315    0.1075 N.pl3     1 <0>        -0.9958
     12 C8          8.7116    4.2493   -0.3413 C.3       1 <0>         0.0917
     13 C9          7.7792    4.2715   -1.5589 C.3       1 <0>         0.0729
     14 N2          6.6123    5.1066   -1.2416 N.am      1 <0>        -0.6001
     15 C10         6.8313    6.4906   -0.7981 C.3       1 <0>         0.0971
     16 C11         7.7639    6.4666    0.4248 C.3       1 <0>         0.1065
     17 C12         5.3635    4.6140   -1.3606 C.2       1 <0>         0.5179
     18 O3          4.4066    5.3386   -1.1869 O.2       1 <0>        -0.5311
     19 C13         5.1561    3.1626   -1.7094 C.3       1 <0>         0.1226
     20 H1          5.8381    2.5470   -1.1230 H         1 <0>         0.1307
     21 C14         5.4319    2.9518   -3.1995 C.3       1 <0>        -0.1666
     22 N3          3.7737    2.7811   -1.4099 N.pl3     1 <0>        -0.6536
     23 C15         3.4641    1.4648   -1.1459 C.2       1 <0>         0.5189
     24 N4          4.3893    0.5587   -1.1609 N.2       1 <0>        -0.8894
     25 S2          3.6226   -0.8840   -0.7982 S.o2      1 <0>         2.5840
     26 O4          4.0839   -1.3111    0.4761 O.2       1 <0>        -0.9404
     27 O5          3.6631   -1.7009   -1.9603 O.2       1 <0>        -0.9400
     28 C16         1.9596   -0.3036   -0.6039 C.ar      1 <0>        -0.6156
     29 C17         2.0789    1.0725   -0.8441 C.ar      1 <0>        -0.1235
     30 C18         0.9101    1.8448   -0.7661 C.ar      1 <0>        -0.0495
     31 C19        -0.2956    1.2523   -0.4638 C.ar      1 <0>        -0.0857
     32 C20        -0.3810   -0.1077   -0.2261 C.ar      1 <0>        -0.0894
     33 C21         0.7642   -0.8883   -0.3046 C.ar      1 <0>         0.0048
     34 C22        10.9256    4.7437   -2.3370 C.3       1 <0>        -0.1929
     35 H2         10.4673   10.9315   -2.8639 H         1 <0>         0.0745
     36 H3         11.7788   10.8755   -1.6618 H         1 <0>         0.0715
     37 H4         12.1564   10.7557   -3.3972 H         1 <0>         0.0704
     38 H5         11.7421    8.6994   -4.6199 H         1 <0>         0.1313
     39 H6         11.5248    6.2499   -4.4981 H         1 <0>         0.1329
     40 H7         10.8296    8.9873   -0.4638 H         1 <0>         0.1426
     41 H8          8.2517    3.6727    0.4612 H         1 <0>         0.0897
     42 H9          9.6638    3.7965   -0.6179 H         1 <0>         0.1155
     43 H10         7.4519    3.2573   -1.7875 H         1 <0>         0.1085
     44 H11         8.3049    4.6886   -2.4178 H         1 <0>         0.0898
     45 H12         7.2928    7.0637   -1.6023 H         1 <0>         0.0787
     46 H13         5.8778    6.9422   -0.5242 H         1 <0>         0.1097
     47 H14         7.2365    6.0478    1.2819 H         1 <0>         0.0860
     48 H15         8.0915    7.4801    0.6564 H         1 <0>         0.1065
     49 H16         6.4826    3.1549   -3.4068 H         1 <0>         0.0811
     50 H17         5.2008    1.9214   -3.4696 H         1 <0>         0.0868
     51 H18         4.8088    3.6290   -3.7837 H         1 <0>         0.0689
     52 H19         3.0764    3.4553   -1.3975 H         1 <0>         0.4241
     53 H20         0.9563    2.9090   -0.9444 H         1 <0>         0.1407
     54 H21        -1.1872    1.8592   -0.4072 H         1 <0>         0.1456
     55 H22        -1.3319   -0.5593    0.0147 H         1 <0>         0.1481
     56 H23         0.7097   -1.9519   -0.1254 H         1 <0>         0.1459
     57 H24         9.8762    4.4669   -2.4376 H         1 <0>         0.0878
     58 H25        11.5006    4.2873   -3.1427 H         1 <0>         0.0878
     59 H26        11.3036    4.3925   -1.3768 H         1 <0>         0.1143
@<TRIPOS>BOND
     1    1    2 1
     2    1   35 1
     3    1   36 1
     4    1   37 1
     5    2    7 ar
     6    2    3 ar
     7    3    4 ar
     8    3   38 1
     9    4    5 ar
    10    4   39 1
    11    5    6 ar
    12    5   34 1
    13    6    7 ar
    14    6    8 1
    15    7   40 1
    16    8    9 2
    17    8   10 2
    18    8   11 1
    19   11   16 1
    20   11   12 1
    21   12   13 1
    22   12   41 1
    23   12   42 1
    24   13   14 1
    25   13   43 1
    26   13   44 1
    27   14   15 1
    28   14   17 am
    29   15   16 1
    30   15   45 1
    31   15   46 1
    32   16   47 1
    33   16   48 1
    34   17   18 2
    35   17   19 1
    36   19   20 1
    37   19   21 1
    38   19   22 1
    39   21   49 1
    40   21   50 1
    41   21   51 1
    42   22   23 1
    43   22   52 1
    44   23   29 1
    45   23   24 2
    46   24   25 1
    47   25   26 2
    48   25   27 2
    49   25   28 1
    50   28   33 ar
    51   28   29 ar
    52   29   30 ar
    53   30   31 ar
    54   30   53 1
    55   31   32 ar
    56   31   54 1
    57   32   33 ar
    58   32   55 1
    59   33   56 1
    60   34   57 1
    61   34   58 1
    62   34   59 1
@<TRIPOS>MOLECULE
ZINC34896574
   58    61     0     0     0
SMALL
USER_CHARGES

@<TRIPOS>ATOM
      1 C1          1.4294   -2.6185   -2.3498 C.3       1 <0>        -0.1582
      2 C2          1.9188   -1.3336   -1.6786 C.3       1 <0>        -0.1384
      3 C3          0.7152   -0.4915   -1.2507 C.3       1 <0>         0.1255
      4 H1          0.0547   -1.0927   -0.6260 H         1 <0>         0.0965
      5 C4          1.1995    0.7244   -0.4583 C.3       1 <0>        -0.1685
      6 N1         -0.0131   -0.0412   -2.4394 N.am      1 <0>        -0.5916
      7 C5          0.6621    0.7860   -3.4425 C.3       1 <0>         0.1540
      8 H2          1.6962    0.9501   -3.1395 H         1 <0>         0.1152
      9 C6          0.6363    0.0647   -4.8003 C.3       1 <0>        -0.1494
     10 C7          1.0685    1.0800   -5.8965 C.3       1 <0>        -0.5708
     11 S1          0.1832    2.5912   -5.3241 S.o2      1 <0>         2.3730
     12 O1          1.0651    3.7024   -5.4054 O.2       1 <0>        -0.9377
     13 O2         -1.0835    2.6555   -5.9649 O.2       1 <0>        -0.9245
     14 C8         -0.0624    2.1489   -3.5567 C.3       1 <0>        -0.5996
     15 C9         -1.3043   -0.3879   -2.6102 C.2       1 <0>         0.5059
     16 O3         -1.9323    0.0556   -3.5482 O.2       1 <0>        -0.5152
     17 C10        -1.9676   -1.3266   -1.6356 C.3       1 <0>         0.0972
     18 N2         -3.3236   -1.6326   -2.0982 N.am      1 <0>        -0.5622
     19 C11        -4.4173   -0.9149   -1.7683 C.2       1 <0>         0.5431
     20 O4         -4.4644    0.0673   -1.0593 O.2       1 <0>        -0.4488
     21 C12        -5.5713   -1.5939   -2.4693 C.3       1 <0>         0.1773
     22 C13        -6.2299   -0.6368   -3.4583 C.3       1 <0>        -0.1559
     23 C14        -7.0725    0.3710   -2.6643 C.3       1 <0>         0.0590
     24 O5         -8.1159   -0.3384   -1.9955 O.3       1 <0>        -0.3084
     25 C15        -7.7823   -1.4426   -1.2786 C.ar      1 <0>         0.1634
     26 C16        -6.5729   -2.0927   -1.4658 C.ar      1 <0>        -0.1823
     27 C17        -6.2758   -3.2206   -0.7200 C.ar      1 <0>        -0.0635
     28 C18        -7.1766   -3.6978    0.2125 C.ar      1 <0>        -0.1521
     29 C19        -8.3815   -3.0478    0.4052 C.ar      1 <0>        -0.0665
     30 C20        -8.6846   -1.9242   -0.3366 C.ar      1 <0>        -0.1498
     31 N3         -4.9478   -2.7181   -3.1780 N.am      1 <0>        -0.7089
     32 C21        -3.6302   -2.6557   -2.9053 C.2       1 <0>         0.7098
     33 O6         -2.8121   -3.4423   -3.3401 O.2       1 <0>        -0.5320
     34 H3          0.8201   -3.1864   -1.6467 H         1 <0>         0.0563
     35 H4          0.8326   -2.3660   -3.2263 H         1 <0>         0.0570
     36 H5          2.2868   -3.2185   -2.6547 H         1 <0>         0.0609
     37 H6          2.5156   -1.5861   -0.8022 H         1 <0>         0.0824
     38 H7          2.5281   -0.7657   -2.3818 H         1 <0>         0.0710
     39 H8          1.7987    1.3649   -1.1055 H         1 <0>         0.0645
     40 H9          0.3396    1.2835   -0.0892 H         1 <0>         0.0646
     41 H10         1.8051    0.3912    0.3845 H         1 <0>         0.0762
     42 H11         1.3296   -0.7763   -4.7836 H         1 <0>         0.1033
     43 H12        -0.3719   -0.2939   -5.0076 H         1 <0>         0.1057
     44 H13         2.1481    1.2300   -5.8913 H         1 <0>         0.1405
     45 H14         0.7206    0.7686   -6.8814 H         1 <0>         0.1443
     46 H15        -1.1229    2.0432   -3.3283 H         1 <0>         0.1539
     47 H16         0.4023    2.8894   -2.9057 H         1 <0>         0.1428
     48 H17        -1.3899   -2.2484   -1.5685 H         1 <0>         0.1309
     49 H18        -2.0163   -0.8560   -0.6536 H         1 <0>         0.1281
     50 H19        -5.4629   -0.1088   -4.0250 H         1 <0>         0.1026
     51 H20        -6.8712   -1.1961   -4.1394 H         1 <0>         0.1036
     52 H21        -6.4443    0.8761   -1.9306 H         1 <0>         0.0834
     53 H22        -7.5059    1.1033   -3.3456 H         1 <0>         0.1233
     54 H23        -5.3353   -3.7302   -0.8681 H         1 <0>         0.1211
     55 H24        -6.9397   -4.5788    0.7906 H         1 <0>         0.1299
     56 H25        -9.0851   -3.4193    1.1355 H         1 <0>         0.1353
     57 H26        -9.6262   -1.4174   -0.1852 H         1 <0>         0.1381
     58 H27        -5.3955   -3.3739   -3.7351 H         1 <0>         0.4446
@<TRIPOS>BOND
     1    1    2 1
     2    1   34 1
     3    1   35 1
     4    1   36 1
     5    2    3 1
     6    2   37 1
     7    2   38 1
     8    3    4 1
     9    3    5 1
    10    3    6 1
    11    5   39 1
    12    5   40 1
    13    5   41 1
    14    6    7 1
    15    6   15 am
    16    7    8 1
    17    7   14 1
    18    7    9 1
    19    9   10 1
    20    9   42 1
    21    9   43 1
    22   10   11 1
    23   10   44 1
    24   10   45 1
    25   11   12 2
    26   11   13 2
    27   11   14 1
    28   14   46 1
    29   14   47 1
    30   15   16 2
    31   15   17 1
    32   17   18 1
    33   17   48 1
    34   17   49 1
    35   18   32 am
    36   18   19 am
    37   19   20 2
    38   19   21 1
    39   21   26 1
    40   21   22 1
    41   21   31 1
    42   22   23 1
    43   22   50 1
    44   22   51 1
    45   23   24 1
    46   23   52 1
    47   23   53 1
    48   24   25 1
    49   25   30 ar
    50   25   26 ar
    51   26   27 ar
    52   27   28 ar
    53   27   54 1
    54   28   29 ar
    55   28   55 1
    56   29   30 ar
    57   29   56 1
    58   30   57 1
    59   31   32 am
    60   31   58 1
    61   32   33 2
@<TRIPOS>MOLECULE
ZINC46734558
   56    60     0     0     0
SMALL
USER_CHARGES

@<TRIPOS>ATOM
      1 C1         -0.0187    1.5258    0.0104 C.3       1 <0>        -0.1454
      2 C2          0.0021   -0.0041    0.0020 C.3       1 <0>         0.1724
      3 C3          0.8145   -0.5200   -1.1691 C.2       1 <0>         0.5423
      4 O1          0.5947   -0.3417   -2.3479 O.2       1 <0>        -0.4530
      5 N1          1.8325   -1.2174   -0.6272 N.am      1 <0>        -0.5606
      6 C4          1.7766   -1.2139    0.7095 C.2       1 <0>         0.7128
      7 O2          2.5860   -1.7761    1.4210 O.2       1 <0>        -0.5350
      8 N2          0.7243   -0.5191    1.1781 N.am      1 <0>        -0.7153
      9 C5          2.8713   -1.8963   -1.4058 C.3       1 <0>         0.1001
     10 C6          4.0198   -0.9501   -1.6436 C.2       1 <0>         0.5067
     11 O3          3.9750    0.1801   -1.2058 O.2       1 <0>        -0.5250
     12 N3          5.0968   -1.3597   -2.3427 N.am      1 <0>        -0.6077
     13 C7          5.1630   -2.7238   -2.8846 C.3       1 <0>         0.0996
     14 C8          6.4630   -3.3804   -2.4097 C.3       1 <0>        -0.1345
     15 C9          7.6486   -2.4928   -2.7952 C.3       1 <0>        -0.1105
     16 C10         7.5149   -1.1326   -2.1065 C.3       1 <0>        -0.0054
     17 H1          7.4774   -1.2739   -1.0264 H         1 <0>         0.0905
     18 C11         6.2243   -0.4488   -2.5828 C.3       1 <0>         0.1256
     19 C12         8.6996   -0.2710   -2.4604 C.2       1 <0>         0.1448
     20 N4          9.0485    0.1082   -3.6626 N.2       1 <0>        -0.2378
     21 N5         10.1077    0.8371   -3.6108 N.2       1 <0>        -0.2857
     22 C13        10.4959    0.9626   -2.3522 C.2       1 <0>         0.1934
     23 N6          9.5981    0.2592   -1.5870 N.pl3     1 <0>        -0.3865
     24 C14         9.7362    0.2082   -0.2311 C.2       1 <0>         0.0615
     25 C15        10.7547    0.8503    0.3785 C.2       1 <0>        -0.1319
     26 C16        11.6877    1.5810   -0.3771 C.2       1 <0>        -0.0870
     27 C17        11.5666    1.6338   -1.7310 C.2       1 <0>        -0.0776
     28 C18        -1.4013   -0.5515   -0.0400 C.ar      1 <0>        -0.1106
     29 C19        -2.0041   -0.8145   -1.2560 C.ar      1 <0>        -0.0785
     30 C20        -3.2908   -1.3170   -1.2957 C.ar      1 <0>        -0.1471
     31 C21        -3.9764   -1.5571   -0.1170 C.ar      1 <0>         0.1110
     32 C22        -3.3717   -1.2934    1.1004 C.ar      1 <0>        -0.1509
     33 C23        -2.0829   -0.7959    1.1377 C.ar      1 <0>        -0.0661
     34 F1         -5.2345   -2.0479   -0.1546 F         1 <0>        -0.1345
     35 H2          1.0039    1.9031    0.0027 H         1 <0>         0.0773
     36 H3         -0.5459    1.8868   -0.8726 H         1 <0>         0.0880
     37 H4         -0.5289    1.8773    0.9072 H         1 <0>         0.0843
     38 H5          0.4875   -0.3833    2.1089 H         1 <0>         0.4416
     39 H6          3.2264   -2.7678   -0.8558 H         1 <0>         0.1311
     40 H7          2.4584   -2.2143   -2.3631 H         1 <0>         0.1292
     41 H8          4.3103   -3.3009   -2.5268 H         1 <0>         0.0883
     42 H9          5.1497   -2.6854   -3.9738 H         1 <0>         0.0831
     43 H10         6.4355   -3.5005   -1.3267 H         1 <0>         0.0721
     44 H11         6.5710   -4.3569   -2.8818 H         1 <0>         0.0888
     45 H12         8.5768   -2.9696   -2.4802 H         1 <0>         0.0710
     46 H13         7.6611   -2.3529   -3.8761 H         1 <0>         0.0835
     47 H14         6.2958   -0.2286   -3.6479 H         1 <0>         0.0878
     48 H15         6.0721    0.4758   -2.0258 H         1 <0>         0.0949
     49 H16         9.0247   -0.3500    0.3593 H         1 <0>         0.1684
     50 H17        10.8531    0.8028    1.4529 H         1 <0>         0.1580
     51 H18        12.5013    2.0934    0.1147 H         1 <0>         0.1504
     52 H19        12.2767    2.1938   -2.3215 H         1 <0>         0.1593
     53 H20        -1.4693   -0.6267   -2.1753 H         1 <0>         0.1503
     54 H21        -3.7616   -1.5219   -2.2458 H         1 <0>         0.1426
     55 H22        -3.9056   -1.4800    2.0204 H         1 <0>         0.1421
     56 H23        -1.6094   -0.5943    2.0872 H         1 <0>         0.1337
@<TRIPOS>BOND
     1    1    2 1
     2    1   35 1
     3    1   36 1
     4    1   37 1
     5    2    8 1
     6    2    3 1
     7    2   28 1
     8    3    4 2
     9    3    5 am
    10    5    6 am
    11    5    9 1
    12    6    7 2
    13    6    8 am
    14    8   38 1
    15    9   10 1
    16    9   39 1
    17    9   40 1
    18   10   11 2
    19   10   12 am
    20   12   18 1
    21   12   13 1
    22   13   14 1
    23   13   41 1
    24   13   42 1
    25   14   15 1
    26   14   43 1
    27   14   44 1
    28   15   16 1
    29   15   45 1
    30   15   46 1
    31   16   17 1
    32   16   18 1
    33   16   19 1
    34   18   47 1
    35   18   48 1
    36   19   23 1
    37   19   20 2
    38   20   21 1
    39   21   22 2
    40   22   27 1
    41   22   23 1
    42   23   24 1
    43   24   25 2
    44   24   49 1
    45   25   26 1
    46   25   50 1
    47   26   27 2
    48   26   51 1
    49   27   52 1
    50   28   33 ar
    51   28   29 ar
    52   29   30 ar
    53   29   53 1
    54   30   31 ar
    55   30   54 1
    56   31   32 ar
    57   31   34 1
    58   32   33 ar
    59   32   55 1
    60   33   56 1
@<TRIPOS>MOLECULE
ZINC64889652
   48    51     0     0     0
SMALL
USER_CHARGES

@<TRIPOS>ATOM
      1 C1          1.2892    1.5316    0.5673 C.ar      1 <0>        -0.1348
      2 C2          0.3341    1.9862   -0.3269 C.ar      1 <0>         0.1670
      3 C3         -0.3540    1.0801   -1.1321 C.ar      1 <0>         0.0639
      4 C4         -0.0803   -0.2731   -1.0370 C.ar      1 <0>         0.0043
      5 C5          0.8745   -0.7221   -0.1427 C.ar      1 <0>        -0.6718
      6 C6          1.5573    0.1769    0.6576 C.ar      1 <0>         0.0637
      7 Cl1         2.7535   -0.3960    1.7776 Cl        1 <0>        -0.0234
      8 S1          1.2225   -2.4451   -0.0217 S.o2      1 <0>         2.6896
      9 O1          0.3992   -3.0941   -0.9809 O.2       1 <0>        -0.9417
     10 O2          2.6376   -2.5745   -0.0202 O.2       1 <0>        -0.9305
     11 N1          0.6998   -2.9468    1.4674 N.pl3     1 <0>        -0.9906
     12 C7          1.6391   -3.0546    2.5926 C.3       1 <0>         0.1005
     13 C8          1.1053   -2.2137    3.7589 C.3       1 <0>         0.0927
     14 N2         -0.3063   -2.5586    3.9791 N.am      1 <0>        -0.6092
     15 C9         -1.2455   -2.4508    2.8539 C.3       1 <0>         0.0852
     16 C10        -0.7128   -3.2863    1.6890 C.3       1 <0>         0.1035
     17 C11        -0.7317   -2.9669    5.1910 C.2       1 <0>         0.5041
     18 O3          0.0528   -3.0524    6.1119 O.2       1 <0>        -0.5153
     19 C12        -2.1822   -3.3172    5.4018 C.3       1 <0>         0.0652
     20 H1         -2.4854   -4.0820    4.6868 H         1 <0>         0.1086
     21 C13        -3.0565   -2.0574    5.2235 C.3       1 <0>        -0.1484
     22 C14        -4.1184   -2.2320    6.3433 C.3       1 <0>        -0.1551
     23 C15        -3.2740   -2.9217    7.4443 C.3       1 <0>         0.0463
     24 O4         -2.3772   -3.7962    6.7376 O.3       1 <0>        -0.3503
     25 O5         -1.2912    1.5382   -2.0048 O.3       1 <0>        -0.2911
     26 C16        -2.0292    2.6963   -1.6059 C.3       1 <0>         0.0479
     27 C17        -1.0832    3.7387   -1.0662 C.2       1 <0>         0.4922
     28 O6         -1.3366    4.9175   -1.1979 O.2       1 <0>        -0.4896
     29 N3          0.0477    3.3545   -0.4350 N.am      1 <0>        -0.6609
     30 H2          1.8262    2.2326    1.1890 H         1 <0>         0.1562
     31 H3         -0.6116   -0.9775   -1.6599 H         1 <0>         0.1716
     32 H4          1.7224   -4.0967    2.9010 H         1 <0>         0.0873
     33 H5          2.6172   -2.6809    2.2898 H         1 <0>         0.1086
     34 H6          1.6797   -2.4309    4.6595 H         1 <0>         0.1075
     35 H7          1.1893   -1.1547    3.5149 H         1 <0>         0.0765
     36 H8         -2.2236   -2.8246    3.1568 H         1 <0>         0.1019
     37 H9         -1.3288   -1.4087    2.5455 H         1 <0>         0.0781
     38 H10        -1.2875   -3.0656    0.7896 H         1 <0>         0.1050
     39 H11        -0.8008   -4.3453    1.9316 H         1 <0>         0.0891
     40 H12        -2.4700   -1.1525    5.3828 H         1 <0>         0.0824
     41 H13        -3.5273   -2.0479    4.2405 H         1 <0>         0.0945
     42 H14        -4.4935   -1.2666    6.6829 H         1 <0>         0.0889
     43 H15        -4.9347   -2.8748    6.0138 H         1 <0>         0.0851
     44 H16        -2.7117   -2.1793    8.0106 H         1 <0>         0.0644
     45 H17        -3.9175   -3.4980    8.1092 H         1 <0>         0.0935
     46 H18        -2.5625    3.1008   -2.4661 H         1 <0>         0.1557
     47 H19        -2.7458    2.4211   -0.8319 H         1 <0>         0.1082
     48 H20         0.6524    4.0151   -0.0625 H         1 <0>         0.4232
@<TRIPOS>BOND
     1    1    6 ar
     2    1    2 ar
     3    1   30 1
     4    2   29 1
     5    2    3 ar
     6    3    4 ar
     7    3   25 1
     8    4    5 ar
     9    4   31 1
    10    5    6 ar
    11    5    8 1
    12    6    7 1
    13    8    9 2
    14    8   10 2
    15    8   11 1
    16   11   16 1
    17   11   12 1
    18   12   13 1
    19   12   32 1
    20   12   33 1
    21   13   14 1
    22   13   34 1
    23   13   35 1
    24   14   15 1
    25   14   17 am
    26   15   16 1
    27   15   36 1
    28   15   37 1
    29   16   38 1
    30   16   39 1
    31   17   18 2
    32   17   19 1
    33   19   20 1
    34   19   24 1
    35   19   21 1
    36   21   22 1
    37   21   40 1
    38   21   41 1
    39   22   23 1
    40   22   42 1
    41   22   43 1
    42   23   24 1
    43   23   44 1
    44   23   45 1
    45   25   26 1
    46   26   27 1
    47   26   46 1
    48   26   47 1
    49   27   28 2
    50   27   29 am
    51   29   48 1
@<TRIPOS>MOLECULE
ZINC19995244
   40    42     0     0     0
SMALL
USER_CHARGES
2-(5,6-dimethyl-4-oxo-thieno[2,3-d]triazin-3-yl)-N-(5-isopropyl-1,3,4-thiadiazol-2-yl)acetamide
@<TRIPOS>ATOM
      1 C1         -3.1663    7.4109    3.7517 C.3       1 <0>        -0.0996
      2 C2         -3.6352    7.6448    2.3388 C.2       1 <0>        -0.0801
      3 C3         -4.8207    8.2332    2.1046 C.2       1 <0>        -0.1277
      4 S1         -4.9129    8.2798    0.3248 S.3       1 <0>         0.2059
      5 C4         -3.3586    7.5088   -0.0510 C.2       1 <0>        -0.0132
      6 C5         -2.8132    7.2375    1.2164 C.2       1 <0>        -0.1527
      7 C6         -1.5280    6.5993    1.2209 C.2       1 <0>         0.5430
      8 O1         -0.9758    6.3243    2.2722 O.2       1 <0>        -0.5056
      9 N1         -0.9428    6.3091    0.0431 N.am      1 <0>        -0.4297
     10 N2         -1.5714    6.6276   -1.1651 N.2       1 <0>         0.0989
     11 N3         -2.7279    7.1959   -1.1783 N.2       1 <0>        -0.1654
     12 C7          0.3695    5.6579    0.0273 C.3       1 <0>         0.1067
     13 C8          0.1879    4.1619    0.0217 C.2       1 <0>         0.5003
     14 O2         -0.9278    3.6864    0.0301 O.2       1 <0>        -0.4549
     15 N4          1.2654    3.3524    0.0073 N.am      1 <0>        -0.6238
     16 C9          1.0978    1.9718    0.0022 C.2       1 <0>         0.2701
     17 N5         -0.0150    1.2581    0.0090 N.2       1 <0>        -0.2945
     18 N6          0.0021   -0.0041    0.0020 N.2       1 <0>        -0.2417
     19 C10         1.1450   -0.6605   -0.0124 C.2       1 <0>         0.0584
     20 S2          2.2948    0.7100   -0.0160 S.3       1 <0>         0.0142
     21 C11         1.4084   -2.1442   -0.0225 C.3       1 <0>         0.0049
     22 C12         0.7990   -2.7789    1.2292 C.3       1 <0>        -0.1459
     23 C13         0.7758   -2.7661   -1.2691 C.3       1 <0>        -0.1458
     24 C14        -5.8299    8.7329    3.1059 C.3       1 <0>        -0.0767
     25 H1         -3.9232    7.7862    4.4561 H         1 <0>         0.0727
     26 H2         -2.2173    7.9423    3.9158 H         1 <0>         0.0777
     27 H3         -3.0161    6.3334    3.9145 H         1 <0>         0.0778
     28 H4          0.9198    5.9638   -0.8747 H         1 <0>         0.1454
     29 H5          0.9371    5.9550    0.9215 H         1 <0>         0.1461
     30 H6          2.2773    3.7837   -0.0004 H         1 <0>         0.4596
     31 H7          2.4960   -2.3083   -0.0335 H         1 <0>         0.0997
     32 H8          0.9913   -3.8619    1.2218 H         1 <0>         0.0749
     33 H9         -0.2862   -2.5992    1.2402 H         1 <0>         0.0699
     34 H10         1.2538   -2.3318    2.1255 H         1 <0>         0.0596
     35 H11         0.9681   -3.8491   -1.2764 H         1 <0>         0.0748
     36 H12         1.2139   -2.3098   -2.1690 H         1 <0>         0.0598
     37 H13        -0.3094   -2.5864   -1.2580 H         1 <0>         0.0699
     38 H14        -6.6925    9.1614    2.5745 H         1 <0>         0.0827
     39 H15        -5.3678    9.5056    3.7378 H         1 <0>         0.0921
     40 H16        -6.1661    7.8965    3.7362 H         1 <0>         0.0921
@<TRIPOS>BOND
     1    1    2 1
     2    1   25 1
     3    1   26 1
     4    1   27 1
     5    2    6 1
     6    2    3 2
     7    3    4 1
     8    3   24 1
     9    4    5 1
    10    5   11 1
    11    5    6 2
    12    6    7 1
    13    7    8 2
    14    7    9 am
    15    9   10 1
    16    9   12 1
    17   10   11 2
    18   12   13 1
    19   12   28 1
    20   12   29 1
    21   13   14 2
    22   13   15 am
    23   15   16 1
    24   15   30 1
    25   16   20 1
    26   16   17 2
    27   17   18 1
    28   18   19 2
    29   19   20 1
    30   19   21 1
    31   21   22 1
    32   21   23 1
    33   21   31 1
    34   22   32 1
    35   22   33 1
    36   22   34 1
    37   23   35 1
    38   23   36 1
    39   23   37 1
    40   24   38 1
    41   24   39 1
    42   24   40 1
@<TRIPOS>MOLECULE
ZINC44019738
   48    51     0     0     0
SMALL
USER_CHARGES

@<TRIPOS>ATOM
      1 C1          4.5088   -1.6591   -0.9645 C.3       1 <0>        -0.1150
      2 C2          3.1469   -1.6458   -0.3193 C.ar      1 <0>        -0.0771
      3 C3          2.1163   -0.9262   -0.8962 C.ar      1 <0>        -0.1082
      4 C4          0.8656   -0.9112   -0.3070 C.ar      1 <0>        -0.1063
      5 C5          0.6418   -1.6158    0.8600 C.ar      1 <0>        -0.0999
      6 C6          1.6742   -2.3393    1.4411 C.ar      1 <0>         0.1323
      7 C7          2.9279   -2.3566    0.8442 C.ar      1 <0>        -0.0921
      8 N1          1.4504   -3.0546    2.6251 N.am      1 <0>        -0.5143
      9 C8          2.0331   -2.6494    3.7706 C.2       1 <0>         0.5606
     10 O1          2.7518   -1.6645    3.7781 O.2       1 <0>        -0.5115
     11 C9          1.8074   -3.3675    4.9550 C.2       1 <0>        -0.3785
     12 C10         0.9969   -4.4682    4.9200 C.2       1 <0>         0.4737
     13 N2          0.4232   -4.8459    3.7303 N.am      1 <0>        -0.6501
     14 H1         -0.1527   -5.6258    3.6988 H         1 <0>         0.4301
     15 C11         0.6513   -4.1369    2.6095 C.2       1 <0>         0.7105
     16 O2          0.1315   -4.4824    1.5661 O.2       1 <0>        -0.5233
     17 N3          0.7593   -5.1890    6.0624 N.pl3     1 <0>        -0.6159
     18 C12         0.7894   -4.5360    7.3787 C.3       1 <0>         0.1128
     19 C13        -0.5437   -4.8027    8.0886 C.3       1 <0>         0.0785
     20 N4         -0.8335   -6.2418    8.0184 N.am      1 <0>        -0.6086
     21 C14        -0.8636   -6.8948    6.7021 C.3       1 <0>         0.0949
     22 C15         0.4640   -6.6269    5.9917 C.3       1 <0>         0.0985
     23 C16        -1.0670   -6.9501    9.1410 C.2       1 <0>         0.6090
     24 O3         -1.1734   -8.1611    9.0853 O.2       1 <0>        -0.5130
     25 C17        -1.1930   -6.2614   10.4297 C.2       1 <0>        -0.0896
     26 C18        -1.2855   -6.8597   11.6535 C.2       1 <0>        -0.1077
     27 C19        -1.3886   -5.8285   12.6001 C.2       1 <0>        -0.2223
     28 C20        -1.3548   -4.6606   11.9212 C.2       1 <0>        -0.0051
     29 O4         -1.2318   -4.9255   10.6141 O.3       1 <0>        -0.1628
     30 H2          4.5669   -2.4849   -1.6735 H         1 <0>         0.0731
     31 H3          4.6715   -0.7176   -1.4892 H         1 <0>         0.0707
     32 H4          5.2730   -1.7843   -0.1974 H         1 <0>         0.0683
     33 H5          2.2889   -0.3747   -1.8085 H         1 <0>         0.1290
     34 H6          0.0629   -0.3479   -0.7594 H         1 <0>         0.1316
     35 H7         -0.3353   -1.6034    1.3199 H         1 <0>         0.1233
     36 H8          3.7319   -2.9222    1.2916 H         1 <0>         0.1245
     37 H9          2.2676   -3.0554    5.8808 H         1 <0>         0.1681
     38 H10         1.6077   -4.9450    7.9713 H         1 <0>         0.0847
     39 H11         0.9276   -3.4623    7.2513 H         1 <0>         0.1099
     40 H12        -0.4707   -4.4947    9.1317 H         1 <0>         0.1245
     41 H13        -1.3392   -4.2448    7.5947 H         1 <0>         0.0815
     42 H14        -1.0018   -7.9684    6.8295 H         1 <0>         0.1143
     43 H15        -1.6819   -6.4858    6.1095 H         1 <0>         0.0794
     44 H16         0.3873   -6.9338    4.9486 H         1 <0>         0.0928
     45 H17         1.2586   -7.1882    6.4833 H         1 <0>         0.0906
     46 H18        -1.2805   -7.9209   11.8542 H         1 <0>         0.1618
     47 H19        -1.4783   -5.9463   13.6699 H         1 <0>         0.1595
     48 H20        -1.4138   -3.6758   12.3606 H         1 <0>         0.2129
@<TRIPOS>BOND
     1    1    2 1
     2    1   30 1
     3    1   31 1
     4    1   32 1
     5    2    7 ar
     6    2    3 ar
     7    3    4 ar
     8    3   33 1
     9    4    5 ar
    10    4   34 1
    11    5    6 ar
    12    5   35 1
    13    6    7 ar
    14    6    8 1
    15    7   36 1
    16    8   15 am
    17    8    9 am
    18    9   10 2
    19    9   11 1
    20   11   12 2
    21   11   37 1
    22   12   13 1
    23   12   17 1
    24   13   14 1
    25   13   15 am
    26   15   16 2
    27   17   22 1
    28   17   18 1
    29   18   19 1
    30   18   38 1
    31   18   39 1
    32   19   20 1
    33   19   40 1
    34   19   41 1
    35   20   21 1
    36   20   23 am
    37   21   22 1
    38   21   42 1
    39   21   43 1
    40   22   44 1
    41   22   45 1
    42   23   24 2
    43   23   25 1
    44   25   29 1
    45   25   26 2
    46   26   27 1
    47   26   46 1
    48   27   28 2
    49   27   47 1
    50   28   29 1
    51   28   48 1
@<TRIPOS>MOLECULE
ZINC59023490
   46    50     0     0     0
SMALL
USER_CHARGES

@<TRIPOS>ATOM
      1 C1          0.0121    1.4077    0.4535 C.ar      1 <0>        -0.1090
      2 C2          1.1826    2.1055    0.2092 C.ar      1 <0>        -0.1070
      3 C3          2.3922    1.4408    0.1596 C.ar      1 <0>        -0.1058
      4 C4          2.4342    0.0687    0.3552 C.ar      1 <0>         0.0905
      5 C5          1.2537   -0.6350    0.6015 C.ar      1 <0>         0.0877
      6 C6          0.0440    0.0410    0.6495 C.ar      1 <0>        -0.1040
      7 N1          1.6075   -1.9734    0.7552 N.am      1 <0>        -0.6450
      8 H1          0.9966   -2.7049    0.9362 H         1 <0>         0.4348
      9 C7          2.9417   -2.0789    0.6090 C.2       1 <0>         0.6822
     10 O1          3.5751   -3.1152    0.6840 O.2       1 <0>        -0.5494
     11 N2          3.4687   -0.8639    0.3668 N.am      1 <0>        -0.5353
     12 C8          4.8883   -0.5724    0.1520 C.3       1 <0>         0.1687
     13 C9          5.3894   -1.3492   -1.0677 C.3       1 <0>        -0.1532
     14 C10         6.8648   -1.0153   -1.3098 C.3       1 <0>         0.1277
     15 N3          7.6178   -1.2781   -0.0759 N.pl3     1 <0>        -0.5975
     16 C11         7.1660   -0.6521    1.1743 C.3       1 <0>         0.1283
     17 C12         5.6873   -0.9901    1.3886 C.3       1 <0>        -0.1512
     18 C13         8.7360   -2.1034   -0.0908 C.ar      1 <0>         0.3990
     19 C14         9.2858   -2.5112   -1.3038 C.ar      1 <0>        -0.0241
     20 N4         10.3477   -3.2950   -1.3176 N.ar      1 <0>        -0.3759
     21 C15        10.8925   -3.6946   -0.1820 C.ar      1 <0>        -0.0061
     22 C16        10.3494   -3.2911    1.0312 C.ar      1 <0>         0.3806
     23 N5          9.2847   -2.4995    1.0502 N.ar      1 <0>        -0.5296
     24 N6         10.9271   -3.7153    2.2317 N.pl3     1 <0>        -0.3269
     25 C17        10.4970   -3.4020    3.4816 C.2       1 <0>         0.0780
     26 C18        11.3242   -4.0091    4.3632 C.2       1 <0>        -0.2598
     27 C19        12.2888   -4.7146    3.6349 C.2       1 <0>         0.0705
     28 N7         12.0491   -4.5443    2.3602 N.2       1 <0>        -0.2799
     29 H2         -0.9295    1.9351    0.4953 H         1 <0>         0.1346
     30 H3          1.1496    3.1741    0.0565 H         1 <0>         0.1344
     31 H4          3.3032    1.9885   -0.0316 H         1 <0>         0.1293
     32 H5         -0.8711   -0.5000    0.8398 H         1 <0>         0.1318
     33 H6          5.0176    0.4962   -0.0200 H         1 <0>         0.1016
     34 H7          5.2835   -2.4188   -0.8865 H         1 <0>         0.0896
     35 H8          4.8044   -1.0684   -1.9434 H         1 <0>         0.0856
     36 H9          7.2532   -1.6391   -2.1148 H         1 <0>         0.0952
     37 H10         6.9618    0.0361   -1.5803 H         1 <0>         0.0803
     38 H11         7.7533   -1.0364    2.0083 H         1 <0>         0.1009
     39 H12         7.2877    0.4289    1.1064 H         1 <0>         0.0712
     40 H13         5.3143   -0.4537    2.2611 H         1 <0>         0.0814
     41 H14         5.5786   -2.0631    1.5467 H         1 <0>         0.0882
     42 H15         8.8427   -2.1863   -2.2336 H         1 <0>         0.1727
     43 H16        11.7611   -4.3361   -0.1972 H         1 <0>         0.1779
     44 H17         9.6484   -2.7808    3.7270 H         1 <0>         0.1811
     45 H18        11.2530   -3.9580    5.4397 H         1 <0>         0.1590
     46 H19        13.0918   -5.3029    4.0539 H         1 <0>         0.1971
@<TRIPOS>BOND
     1    1    6 ar
     2    1    2 ar
     3    1   29 1
     4    2    3 ar
     5    2   30 1
     6    3    4 ar
     7    3   31 1
     8    4   11 1
     9    4    5 ar
    10    5    6 ar
    11    5    7 1
    12    6   32 1
    13    7    8 1
    14    7    9 am
    15    9   10 2
    16    9   11 am
    17   11   12 1
    18   12   17 1
    19   12   13 1
    20   12   33 1
    21   13   14 1
    22   13   34 1
    23   13   35 1
    24   14   15 1
    25   14   36 1
    26   14   37 1
    27   15   16 1
    28   15   18 1
    29   16   17 1
    30   16   38 1
    31   16   39 1
    32   17   40 1
    33   17   41 1
    34   18   23 ar
    35   18   19 ar
    36   19   20 ar
    37   19   42 1
    38   20   21 ar
    39   21   22 ar
    40   21   43 1
    41   22   23 ar
    42   22   24 1
    43   24   28 1
    44   24   25 1
    45   25   26 2
    46   25   44 1
    47   26   27 1
    48   26   45 1
    49   27   28 2
    50   27   46 1
@<TRIPOS>MOLECULE
ZINC65232322
   58    61     0     0     0
SMALL
USER_CHARGES

@<TRIPOS>ATOM
      1 C1         -0.0116    1.5088    0.0096 C.3       1 <0>        -0.0701
      2 C2          0.0072    0.0020    0.0014 C.2       1 <0>         0.0471
      3 C3         -1.0762   -0.8216    0.0017 C.2       1 <0>        -0.0771
      4 N1         -0.6078   -2.0990   -0.0081 N.2       1 <0>        -0.4516
      5 C4          0.6909   -2.0614   -0.0141 C.2       1 <0>         0.2000
      6 O1          1.0959   -0.7835   -0.0136 O.3       1 <0>        -0.1905
      7 C5          1.5986   -3.2643   -0.0251 C.3       1 <0>         0.0132
      8 C6          2.4745   -3.2307   -1.2797 C.3       1 <0>        -0.1321
      9 C7          3.3712   -4.4725   -1.3050 C.3       1 <0>         0.1324
     10 N2          4.1241   -4.5379   -0.0451 N.am      1 <0>        -0.6314
     11 C8          3.3845   -4.4856    1.2234 C.3       1 <0>         0.1148
     12 C9          2.4877   -3.2436    1.2204 C.3       1 <0>        -0.1322
     13 C10         5.4676   -4.6443   -0.0527 C.2       1 <0>         0.7094
     14 O2          6.0608   -4.7791   -1.1054 O.2       1 <0>        -0.5879
     15 N3          6.1536   -4.6011    1.1066 N.am      1 <0>        -0.7408
     16 C11         7.6186   -4.6048    1.0915 C.3       1 <0>         0.1285
     17 C12         8.1436   -4.5507    2.5276 C.3       1 <0>         0.0675
     18 H1          7.7101   -3.6964    3.0477 H         1 <0>         0.0872
     19 C13         9.6828   -4.4322    2.5184 C.3       1 <0>        -0.1480
     20 C14        10.0911   -5.3502    3.7027 C.3       1 <0>        -0.1564
     21 C15         9.0035   -6.4500    3.6109 C.3       1 <0>         0.0488
     22 O3          7.8048   -5.7610    3.2147 O.3       1 <0>        -0.3766
     23 C16        -2.4911   -0.4076    0.0117 C.2       1 <0>         0.6171
     24 O4         -2.7788    0.7740    0.0208 O.2       1 <0>        -0.5342
     25 N4         -3.4657   -1.3385    0.0108 N.am      1 <0>        -0.6059
     26 C17        -3.2600   -2.7943    0.0068 C.3       1 <0>         0.1128
     27 C18        -4.6549   -3.4539   -0.0191 C.3       1 <0>        -0.1364
     28 C19        -5.5583   -2.3339   -0.5994 C.3       1 <0>        -0.1342
     29 C20        -4.9144   -1.0657    0.0200 C.3       1 <0>         0.1051
     30 H2          1.0114    1.8850    0.0020 H         1 <0>         0.0804
     31 H3         -0.5383    1.8705   -0.8735 H         1 <0>         0.1005
     32 H4         -0.5215    1.8609    0.9064 H         1 <0>         0.1004
     33 H5          0.9970   -4.1732   -0.0268 H         1 <0>         0.1188
     34 H6          1.8402   -3.2218   -2.1661 H         1 <0>         0.0852
     35 H7          3.0946   -2.3344   -1.2665 H         1 <0>         0.0768
     36 H8          2.7554   -5.3658   -1.4095 H         1 <0>         0.0724
     37 H9          4.0655   -4.4048   -2.1425 H         1 <0>         0.1015
     38 H10         2.7698   -5.3800    1.3251 H         1 <0>         0.0782
     39 H11         4.0876   -4.4265    2.0542 H         1 <0>         0.0841
     40 H12         3.1076   -2.3472    1.2100 H         1 <0>         0.0777
     41 H13         1.8627   -3.2440    2.1135 H         1 <0>         0.0851
     42 H14         5.6774   -4.5677    1.9510 H         1 <0>         0.3985
     43 H15         7.9747   -5.5147    0.6085 H         1 <0>         0.0722
     44 H16         7.9784   -3.7361    0.5401 H         1 <0>         0.0764
     45 H17        10.0948   -4.8034    1.5800 H         1 <0>         0.0836
     46 H18         9.9938   -3.4034    2.6999 H         1 <0>         0.0875
     47 H19        11.0862   -5.7681    3.5509 H         1 <0>         0.0864
     48 H20        10.0315   -4.8171    4.6516 H         1 <0>         0.0801
     49 H21         9.2789   -7.1927    2.8621 H         1 <0>         0.0626
     50 H22         8.8627   -6.9248    4.5819 H         1 <0>         0.0874
     51 H23        -2.6953   -3.0865   -0.8785 H         1 <0>         0.0754
     52 H24        -2.7242   -3.0954    0.9070 H         1 <0>         0.0736
     53 H25        -4.6564   -4.3273   -0.6713 H         1 <0>         0.0837
     54 H26        -4.9731   -3.7229    0.9881 H         1 <0>         0.0765
     55 H27        -5.5033   -2.3122   -1.6878 H         1 <0>         0.0772
     56 H28        -6.5889   -2.4502   -0.2641 H         1 <0>         0.0865
     57 H29        -5.2663   -0.9190    1.0412 H         1 <0>         0.0714
     58 H30        -5.1395   -0.1903   -0.5892 H         1 <0>         0.0809
@<TRIPOS>BOND
     1    1    2 1
     2    1   30 1
     3    1   31 1
     4    1   32 1
     5    2    6 1
     6    2    3 2
     7    3    4 1
     8    3   23 1
     9    4    5 2
    10    5    6 1
    11    5    7 1
    12    7   12 1
    13    7    8 1
    14    7   33 1
    15    8    9 1
    16    8   34 1
    17    8   35 1
    18    9   10 1
    19    9   36 1
    20    9   37 1
    21   10   11 1
    22   10   13 am
    23   11   12 1
    24   11   38 1
    25   11   39 1
    26   12   40 1
    27   12   41 1
    28   13   14 2
    29   13   15 am
    30   15   16 1
    31   15   42 1
    32   16   17 1
    33   16   43 1
    34   16   44 1
    35   17   18 1
    36   17   22 1
    37   17   19 1
    38   19   20 1
    39   19   45 1
    40   19   46 1
    41   20   21 1
    42   20   47 1
    43   20   48 1
    44   21   22 1
    45   21   49 1
    46   21   50 1
    47   23   24 2
    48   23   25 am
    49   25   29 1
    50   25   26 1
    51   26   27 1
    52   26   51 1
    53   26   52 1
    54   27   28 1
    55   27   53 1
    56   27   54 1
    57   28   29 1
    58   28   55 1
    59   28   56 1
    60   29   57 1
    61   29   58 1
@<TRIPOS>MOLECULE
ZINC67066948
   48    51     0     0     0
SMALL
USER_CHARGES

@<TRIPOS>ATOM
      1 C1         -0.0167    1.3777    0.0096 C.ar      1 <0>        -0.1127
      2 C2          1.1697    2.0876    0.0021 C.ar      1 <0>        -0.0945
      3 C3          2.3783    1.4178   -0.0143 C.ar      1 <0>        -0.0787
      4 C4          2.4042    0.0310   -0.0230 C.ar      1 <0>         0.0592
      5 C5          1.2117   -0.6826   -0.0129 C.ar      1 <0>         0.0509
      6 C6          0.0021   -0.0041    0.0020 C.ar      1 <0>        -0.1145
      7 O1          1.2145   -2.0436   -0.0133 O.3       1 <0>        -0.3073
      8 C7          2.4336   -2.6847   -0.4041 C.3       1 <0>         0.0196
      9 C8          3.5941   -1.9974    0.3280 C.3       1 <0>         0.0211
     10 O2          3.6022   -0.6147   -0.0433 O.3       1 <0>        -0.3045
     11 C9          3.6695    2.1948   -0.0233 C.3       1 <0>         0.2072
     12 H1          4.3807    1.7238   -0.7020 H         1 <0>         0.0893
     13 C10         4.2600    2.2481    1.4015 C.3       1 <0>        -0.1189
     14 C11         4.8332    3.6873    1.4865 C.3       1 <0>        -0.1309
     15 C12         3.7953    4.4849    0.6581 C.3       1 <0>         0.0960
     16 N1          3.4166    3.5799   -0.4466 N.am      1 <0>        -0.6323
     17 C13         2.9223    3.9581   -1.6420 C.2       1 <0>         0.7249
     18 O3          2.6452    3.1199   -2.4780 O.2       1 <0>        -0.5707
     19 N2          2.7351    5.2655   -1.9107 N.am      1 <0>        -0.7418
     20 C14         2.1977    5.6767   -3.2101 C.3       1 <0>         0.1287
     21 C15         2.0848    7.2018   -3.2558 C.3       1 <0>         0.0772
     22 N3          1.5475    7.6129   -4.5552 N.am      1 <0>        -0.5787
     23 C16         2.3993    7.8514   -5.5381 C.2       1 <0>         0.5243
     24 O4          3.5984    7.7411   -5.3975 O.2       1 <0>        -0.4561
     25 C17         1.7702    8.2734   -6.8586 C.3       1 <0>        -0.1088
     26 S1         -0.0086    8.2368   -6.3842 S.3       1 <0>        -0.1531
     27 C18         0.2125    7.7228   -4.6872 C.2       1 <0>         0.5651
     28 O5         -0.6431    7.5211   -3.8473 O.2       1 <0>        -0.4105
     29 H2         -0.9596    1.9040    0.0259 H         1 <0>         0.1304
     30 H3          1.1518    3.1674    0.0087 H         1 <0>         0.1224
     31 H4         -0.9261   -0.5562    0.0079 H         1 <0>         0.1338
     32 H5          2.3988   -3.7390   -0.1298 H         1 <0>         0.1223
     33 H6          2.5703   -2.5889   -1.4813 H         1 <0>         0.0777
     34 H7          3.4543   -2.0880    1.4052 H         1 <0>         0.0778
     35 H8          4.5372   -2.4612    0.0389 H         1 <0>         0.1224
     36 H9          3.4799    2.0989    2.1480 H         1 <0>         0.0795
     37 H10         5.0531    1.5095    1.5181 H         1 <0>         0.0887
     38 H11         4.8609    4.0365    2.5187 H         1 <0>         0.0883
     39 H12         5.8219    3.7417    1.0307 H         1 <0>         0.0796
     40 H13         2.9251    4.7241    1.2694 H         1 <0>         0.0716
     41 H14         4.2445    5.3961    0.2632 H         1 <0>         0.0746
     42 H15         2.9561    5.9342   -1.2437 H         1 <0>         0.3973
     43 H16         2.8648    5.3378   -4.0027 H         1 <0>         0.0749
     44 H17         1.2114    5.2349   -3.3516 H         1 <0>         0.0743
     45 H18         1.4177    7.5406   -2.4631 H         1 <0>         0.1068
     46 H19         3.0711    7.6436   -3.1142 H         1 <0>         0.1101
     47 H20         2.0839    9.2774   -7.1444 H         1 <0>         0.1592
     48 H21         1.9850    7.5535   -7.6483 H         1 <0>         0.1591
@<TRIPOS>BOND
     1    1    6 ar
     2    1    2 ar
     3    1   29 1
     4    2    3 ar
     5    2   30 1
     6    3    4 ar
     7    3   11 1
     8    4   10 1
     9    4    5 ar
    10    5    6 ar
    11    5    7 1
    12    6   31 1
    13    7    8 1
    14    8    9 1
    15    8   32 1
    16    8   33 1
    17    9   10 1
    18    9   34 1
    19    9   35 1
    20   11   12 1
    21   11   16 1
    22   11   13 1
    23   13   14 1
    24   13   36 1
    25   13   37 1
    26   14   15 1
    27   14   38 1
    28   14   39 1
    29   15   16 1
    30   15   40 1
    31   15   41 1
    32   16   17 am
    33   17   18 2
    34   17   19 am
    35   19   20 1
    36   19   42 1
    37   20   21 1
    38   20   43 1
    39   20   44 1
    40   21   22 1
    41   21   45 1
    42   21   46 1
    43   22   27 am
    44   22   23 am
    45   23   24 2
    46   23   25 1
    47   25   26 1
    48   25   47 1
    49   25   48 1
    50   26   27 1
    51   27   28 2
@<TRIPOS>MOLECULE
ZINC12073913
   51    54     0     0     0
SMALL
USER_CHARGES
(5S)-N'-[(7-methoxy-1,3-benzodioxol-5-yl)methyl]-N,N-dimethyl-5,6,7,8-tetrahydroquinazoline-2,5-diamine
@<TRIPOS>ATOM
      1 C1          6.1828   -4.3378   -2.0783 C.3       1 <0>         0.0904
      2 N1          5.6205   -3.1061   -1.5186 N.pl3     1 <0>        -0.5720
      3 C2          5.5769   -1.8865   -2.3291 C.3       1 <0>         0.0904
      4 C3          5.1306   -3.0948   -0.2243 C.ar      1 <0>         0.5859
      5 N2          4.6248   -1.9729    0.2672 N.ar      1 <0>        -0.5559
      6 C4          4.1522   -1.9328    1.5003 C.ar      1 <0>         0.2039
      7 C5          4.1886   -3.0814    2.2831 C.ar      1 <0>        -0.3310
      8 C6          4.7172   -4.2326    1.7406 C.ar      1 <0>         0.2769
      9 N3          5.1772   -4.2044    0.4946 N.ar      1 <0>        -0.5640
     10 C7          4.7942   -5.5269    2.5040 C.3       1 <0>        -0.0887
     11 C8          4.6351   -5.2734    4.0025 C.3       1 <0>        -0.1121
     12 C9          3.3799   -4.4207    4.2209 C.3       1 <0>        -0.1428
     13 C10         3.6504   -3.0150    3.6856 C.3       1 <0>         0.1087
     14 H1          4.3807   -2.5200    4.3257 H         1 <0>         0.1470
     15 C11         2.1758   -1.6115    4.9964 C.3       1 <0>         0.0540
     16 C12         0.9558   -0.7297    4.9249 C.ar      1 <0>        -0.1187
     17 C13        -0.2897   -1.2507    5.2224 C.ar      1 <0>        -0.1131
     18 C14        -1.4151   -0.4436    5.1580 C.ar      1 <0>         0.0808
     19 C15        -1.2890    0.8929    4.7932 C.ar      1 <0>         0.0326
     20 C16        -0.0354    1.4120    4.4945 C.ar      1 <0>         0.1564
     21 C17         1.0842    0.5959    4.5554 C.ar      1 <0>        -0.1779
     22 O1          0.0930    2.7180    4.1375 O.3       1 <0>        -0.2991
     23 C18         1.4118    3.1838    3.8443 C.3       1 <0>         0.0212
     24 O2         -2.5280    1.4678    4.8046 O.3       1 <0>        -0.2899
     25 C19        -3.3575    0.5770    5.5739 C.3       1 <0>         0.2106
     26 O3         -2.7326   -0.7083    5.3984 O.3       1 <0>        -0.2975
     27 H2          5.3929   -4.9086   -2.5665 H         1 <0>         0.0636
     28 H3          6.9534   -4.0869   -2.8072 H         1 <0>         0.0808
     29 H4          6.6202   -4.9341   -1.2776 H         1 <0>         0.0857
     30 H5          6.4954   -1.3186   -2.1806 H         1 <0>         0.0635
     31 H6          5.4806   -2.1529   -3.3816 H         1 <0>         0.0809
     32 H7          4.7224   -1.2805   -2.0279 H         1 <0>         0.0842
     33 H8          3.7416   -1.0160    1.8968 H         1 <0>         0.1604
     34 H9          5.7597   -5.9976    2.3187 H         1 <0>         0.1059
     35 H10         4.0009   -6.1931    2.1649 H         1 <0>         0.1041
     36 H11         5.5091   -4.7418    4.3788 H         1 <0>         0.0818
     37 H12         4.5292   -6.2224    4.5282 H         1 <0>         0.0998
     38 H13         3.1525   -4.3696    5.2857 H         1 <0>         0.0992
     39 H14         2.5373   -4.8601    3.6871 H         1 <0>         0.0916
     40 H15         3.0445   -1.0089    5.2617 H         1 <0>         0.1435
     41 H16         2.0234   -2.3819    5.7522 H         1 <0>         0.1457
     42 H17        -0.3862   -2.2886    5.5052 H         1 <0>         0.1485
     43 H18         2.0583    0.9980    4.3190 H         1 <0>         0.1521
     44 H19         1.8229    2.6111    3.0130 H         1 <0>         0.0599
     45 H20         2.0455    3.0564    4.7219 H         1 <0>         0.0628
     46 H21         1.3727    4.2391    3.5743 H         1 <0>         0.1129
     47 H22        -3.3550    0.8637    6.6256 H         1 <0>         0.0973
     48 H23        -4.3742    0.5654    5.1813 H         1 <0>         0.1450
     49 N4          2.3930   -2.2438    3.6815 N.4       1 <0>        -0.5219
     50 H24         1.6095   -2.8746    3.4755 H         1 <0>         0.4327
     51 H25         2.4448   -1.5153    2.9598 H         1 <0>         0.4240
@<TRIPOS>BOND
     1    1    2 1
     2    1   27 1
     3    1   28 1
     4    1   29 1
     5    2    3 1
     6    2    4 1
     7    3   30 1
     8    3   31 1
     9    3   32 1
    10    4    9 ar
    11    4    5 ar
    12    5    6 ar
    13    6    7 ar
    14    6   33 1
    15    7   13 1
    16    7    8 ar
    17    8    9 ar
    18    8   10 1
    19   10   11 1
    20   10   34 1
    21   10   35 1
    22   11   12 1
    23   11   36 1
    24   11   37 1
    25   12   13 1
    26   12   38 1
    27   12   39 1
    28   13   14 1
    29   13   49 1
    30   15   16 1
    31   15   40 1
    32   15   41 1
    33   15   49 1
    34   16   21 ar
    35   16   17 ar
    36   17   18 ar
    37   17   42 1
    38   18   26 1
    39   18   19 ar
    40   19   20 ar
    41   19   24 1
    42   20   21 ar
    43   20   22 1
    44   21   43 1
    45   22   23 1
    46   23   44 1
    47   23   45 1
    48   23   46 1
    49   24   25 1
    50   25   26 1
    51   25   47 1
    52   25   48 1
    53   49   50 1
    54   49   51 1
@<TRIPOS>MOLECULE
ZINC39777186
   44    47     0     0     0
SMALL
USER_CHARGES

@<TRIPOS>ATOM
      1 C1         -0.0643    1.3282   -0.0428 C.ar      1 <0>        -0.0975
      2 C2          1.0994    2.1090   -0.0686 C.ar      1 <0>         0.0369
      3 C3          2.3313    1.5513   -0.0764 C.ar      1 <0>        -0.1766
      4 C4          2.4568    0.0887   -0.0574 C.ar      1 <0>         0.3295
      5 N1          3.5050   -0.6992   -0.0915 N.pl3     1 <0>        -0.5263
      6 C5          3.0640   -2.0736    0.0769 C.3       1 <0>         0.2326
      7 H1          3.3472   -2.4340    1.0658 H         1 <0>         0.2014
      8 C6          1.5508   -2.0405   -0.0452 C.2       1 <0>         0.0314
      9 C7          1.2052   -0.7105   -0.0422 C.ar      1 <0>        -0.0285
     10 C8         -0.0306   -0.0239   -0.0302 C.ar      1 <0>        -0.0542
     11 N2          0.8384   -3.1501   -0.2557 N.2       1 <0>        -0.0472
     12 N3          1.4650   -4.1087   -0.8685 N.2       1 <0>        -0.1004
     13 C9          2.7340   -3.9650   -1.3227 C.2       1 <0>         0.2238
     14 N4          3.5438   -3.0025   -0.9450 N.2       1 <0>        -0.5050
     15 S1          3.3360   -5.1430   -2.4866 S.3       1 <0>         0.1826
     16 C10         5.0327   -4.5977   -2.8252 C.3       1 <0>        -0.1740
     17 C11         5.6812   -5.5465   -3.8353 C.3       1 <0>         0.1276
     18 H2          5.1059   -5.5401   -4.7611 H         1 <0>         0.1133
     19 C12         7.1122   -5.0866   -4.1209 C.3       1 <0>         0.0305
     20 N5          7.7306   -5.9900   -5.1004 N.3       1 <0>        -0.5259
     21 C13         9.1964   -5.8846   -5.0625 C.3       1 <0>         0.0188
     22 C14         9.8003   -6.8830   -6.0536 C.3       1 <0>         0.0619
     23 O1          9.2729   -6.6299   -7.3586 O.3       1 <0>        -0.3827
     24 C15         7.8478   -6.7248   -7.4320 C.3       1 <0>         0.0620
     25 C16         7.2241   -5.7247   -6.4549 C.3       1 <0>         0.0152
     26 O2          5.7046   -6.8705   -3.2982 O.3       1 <0>        -0.5332
     27 H3         -1.0234    1.8245   -0.0280 H         1 <0>         0.1677
     28 H4          1.0098    3.1851   -0.0831 H         1 <0>         0.1747
     29 H5          3.2128    2.1748   -0.0968 H         1 <0>         0.1752
     30 H6         -0.9543   -0.5830   -0.0107 H         1 <0>         0.1711
     31 H7          5.0148   -3.5878   -3.2349 H         1 <0>         0.1125
     32 H8          5.6080   -4.6042   -1.8994 H         1 <0>         0.1117
     33 H9          7.0950   -4.0731   -4.5216 H         1 <0>         0.0505
     34 H10         7.6902   -5.1022   -3.1968 H         1 <0>         0.0841
     35 H11         9.4958   -4.8730   -5.3368 H         1 <0>         0.0443
     36 H12         9.5516   -6.1099   -4.0569 H         1 <0>         0.0879
     37 H13        10.8842   -6.7687   -6.0706 H         1 <0>         0.1017
     38 H14         9.5455   -7.8980   -5.7486 H         1 <0>         0.0637
     39 H15         7.5195   -6.4960   -8.4459 H         1 <0>         0.1013
     40 H16         7.5362   -7.7351   -7.1671 H         1 <0>         0.0642
     41 H17         6.1396   -5.8333   -6.4657 H         1 <0>         0.0864
     42 H18         7.4920   -4.7107   -6.7515 H         1 <0>         0.0446
     43 H19         6.2005   -6.9510   -2.4719 H         1 <0>         0.3791
     44 H20         4.4238   -0.4117   -0.2100 H         1 <0>         0.4635
@<TRIPOS>BOND
     1    1   10 ar
     2    1    2 ar
     3    1   27 1
     4    2    3 ar
     5    2   28 1
     6    3    4 ar
     7    3   29 1
     8    4    9 ar
     9    4    5 2
    10    5    6 1
    11    5   44 1
    12    6    7 1
    13    6   14 1
    14    6    8 1
    15    8    9 2
    16    8   11 1
    17    9   10 ar
    18   10   30 1
    19   11   12 2
    20   12   13 1
    21   13   14 2
    22   13   15 1
    23   15   16 1
    24   16   17 1
    25   16   31 1
    26   16   32 1
    27   17   18 1
    28   17   19 1
    29   17   26 1
    30   19   20 1
    31   19   33 1
    32   19   34 1
    33   20   25 1
    34   20   21 1
    35   21   22 1
    36   21   35 1
    37   21   36 1
    38   22   23 1
    39   22   37 1
    40   22   38 1
    41   23   24 1
    42   24   25 1
    43   24   39 1
    44   24   40 1
    45   25   41 1
    46   25   42 1
    47   26   43 1
@<TRIPOS>MOLECULE
ZINC63270171
   54    57     0     0     0
SMALL
USER_CHARGES

@<TRIPOS>ATOM
      1 C1         -0.0184    1.5028    0.0103 C.3       1 <0>        -0.1001
      2 C2          0.0021   -0.0041    0.0020 C.ar      1 <0>        -0.1294
      3 C3          0.0058   -0.6882   -1.2023 C.ar      1 <0>         0.1602
      4 C4          0.0241   -2.0756   -1.2066 C.ar      1 <0>        -0.2144
      5 C5          0.0347   -2.7684   -0.0130 C.ar      1 <0>        -0.0429
      6 C6          0.0288   -2.0879    1.1946 C.ar      1 <0>        -0.1787
      7 C7          0.0230   -0.7036    1.2029 C.ar      1 <0>         0.1544
      8 O1          0.0430    0.0073    2.3634 O.3       1 <0>        -0.2915
      9 C8         -0.1461   -0.6712    3.5127 C.2       1 <0>         0.4936
     10 O2         -0.8256   -0.2248    4.4066 O.2       1 <0>        -0.4340
     11 C9          0.5343   -2.0204    3.6307 C.3       1 <0>        -0.1325
     12 H1          0.2706   -2.4858    4.5804 H         1 <0>         0.1229
     13 C10         0.0293   -2.8910    2.4708 C.3       1 <0>        -0.0376
     14 H2          0.6918   -3.7493    2.3583 H         1 <0>         0.1077
     15 C11        -1.3901   -3.3815    2.7634 C.3       1 <0>        -0.1514
     16 C12         2.0518   -1.8461    3.5421 C.3       1 <0>        -0.0974
     17 C13         2.5440   -1.0425    4.7474 C.3       1 <0>        -0.1496
     18 C14         4.0387   -0.8708    4.6601 C.2       1 <0>         0.5272
     19 O3          4.6500   -1.3444    3.7259 O.2       1 <0>        -0.5037
     20 N1          4.6961   -0.1908    5.6203 N.am      1 <0>        -0.6235
     21 C15         6.1534   -0.0066    5.5508 C.3       1 <0>         0.1086
     22 C16         6.4659    1.4872    5.3990 C.3       1 <0>        -0.0769
     23 C17         5.6209    2.2635    6.3779 C.2       1 <0>         0.0437
     24 H3          3.2374    2.7158    8.3429 H         1 <0>         0.4683
     25 C18         4.5141    1.7793    6.9812 C.2       1 <0>         0.0326
     26 N2          4.0276    2.7648    7.7826 N.pl3     1 <0>        -0.4958
     27 C19         4.8556    3.8269    7.6490 C.cat     1 <0>         0.3068
     28 N3          5.8058    3.5161    6.8065 N.pl3     1 <0>        -0.4679
     29 C20         3.9718    0.3929    6.7644 C.3       1 <0>         0.1741
     30 O4         -0.0090   -0.0029   -2.3757 O.3       1 <0>        -0.3078
     31 C21        -0.0041   -0.7751   -3.5781 C.3       1 <0>         0.0244
     32 H4          1.0042    1.8801    0.0026 H         1 <0>         0.0683
     33 H5         -0.5455    1.8639   -0.8728 H         1 <0>         0.0751
     34 H6         -0.5286    1.8543    0.9071 H         1 <0>         0.0689
     35 H7          0.0298   -2.6130   -2.1434 H         1 <0>         0.1384
     36 H8          0.0472   -3.8483   -0.0199 H         1 <0>         0.1368
     37 H9         -1.7354   -4.0067    1.9400 H         1 <0>         0.0721
     38 H10        -1.3909   -3.9622    3.6858 H         1 <0>         0.0699
     39 H11        -2.0552   -2.5248    2.8728 H         1 <0>         0.0543
     40 H12         2.5304   -2.8253    3.5382 H         1 <0>         0.0983
     41 H13         2.3035   -1.3150    2.6241 H         1 <0>         0.0848
     42 H14         2.0654   -0.0632    4.7513 H         1 <0>         0.0928
     43 H15         2.2924   -1.5736    5.6655 H         1 <0>         0.1078
     44 H16         6.6121   -0.3835    6.4649 H         1 <0>         0.0900
     45 H17         6.5487   -0.5504    4.6929 H         1 <0>         0.1232
     46 H18         7.5212    1.6627    5.6080 H         1 <0>         0.1158
     47 H19         6.2370    1.8068    4.3823 H         1 <0>         0.1113
     48 H20         4.7490    4.7751    8.1550 H         1 <0>         0.2709
     49 H21         2.9058    0.4425    6.5425 H         1 <0>         0.1225
     50 H22         4.1384   -0.2112    7.6563 H         1 <0>         0.1172
     51 H23         0.8942   -1.3916   -3.6103 H         1 <0>         0.0598
     52 H24        -0.8856   -1.4158   -3.6020 H         1 <0>         0.0600
     53 H25        -0.0172   -0.1069   -4.4391 H         1 <0>         0.1060
     54 H26         6.5303    4.1015    6.5357 H         1 <0>         0.4665
@<TRIPOS>BOND
     1    1    2 1
     2    1   32 1
     3    1   33 1
     4    1   34 1
     5    2    7 ar
     6    2    3 ar
     7    3    4 ar
     8    3   30 1
     9    4    5 ar
    10    4   35 1
    11    5    6 ar
    12    5   36 1
    13    6   13 1
    14    6    7 ar
    15    7    8 1
    16    8    9 1
    17    9   10 2
    18    9   11 1
    19   11   12 1
    20   11   13 1
    21   11   16 1
    22   13   14 1
    23   13   15 1
    24   15   37 1
    25   15   38 1
    26   15   39 1
    27   16   17 1
    28   16   40 1
    29   16   41 1
    30   17   18 1
    31   17   42 1
    32   17   43 1
    33   18   19 2
    34   18   20 am
    35   20   29 1
    36   20   21 1
    37   21   22 1
    38   21   44 1
    39   21   45 1
    40   22   46 1
    41   22   47 1
    42   22   23 1
    43   23   25 2
    44   23   28 1
    45   24   26 1
    46   25   26 1
    47   25   29 1
    48   26   27 1
    49   27   48 1
    50   27   28 2
    51   28   54 1
    52   29   49 1
    53   29   50 1
    54   30   31 1
    55   31   51 1
    56   31   52 1
    57   31   53 1
@<TRIPOS>MOLECULE
ZINC65964438
   65    67     0     0     0
SMALL
USER_CHARGES

@<TRIPOS>ATOM
      1 C1         -0.0512    1.5268   -0.0609 C.3       1 <0>        -0.1826
      2 C2         -0.0525   -0.0029   -0.0314 C.3       1 <0>         0.0006
      3 C3          0.7536   -0.4833    1.1478 C.2       1 <0>         0.5066
      4 O1          1.9228   -0.7725    1.0057 O.2       1 <0>        -0.5182
      5 N1          0.1752   -0.5915    2.3603 N.am      1 <0>        -0.5881
      6 C4         -1.2043   -0.1322    2.5746 C.3       1 <0>         0.0797
      7 C5         -2.0239   -1.2940    3.1498 C.3       1 <0>         0.0947
      8 N2         -1.2866   -1.8739    4.2812 N.am      1 <0>        -0.6238
      9 C6          0.0929   -2.3332    4.0668 C.3       1 <0>         0.0932
     10 C7          0.9105   -1.1766    3.4903 C.3       1 <0>         0.0925
     11 C8         -1.8650   -1.9822    5.4937 C.2       1 <0>         0.5171
     12 O2         -3.0039   -1.5993    5.6586 O.2       1 <0>        -0.5303
     13 C9         -1.0966   -2.5789    6.6445 C.3       1 <0>        -0.1782
     14 N3          0.5415   -0.5170   -1.2727 N.4       1 <0>        -0.3716
     15 C10         0.4630   -1.9827   -1.2805 C.3       1 <0>        -0.0095
     16 C11         1.1526   -2.5276   -2.5331 C.3       1 <0>        -0.1230
     17 C12         0.4539   -1.9708   -3.7769 C.3       1 <0>        -0.1228
     18 C13         0.4766   -0.4406   -3.7211 C.3       1 <0>        -0.1379
     19 C14        -0.1880    0.0270   -2.4244 C.3       1 <0>        -0.0098
     20 C15         1.1759   -2.4407   -5.0134 C.2       1 <0>         0.5160
     21 O3          2.1535   -3.1512   -4.9115 O.2       1 <0>        -0.5231
     22 N4          0.7353   -2.0714   -6.2324 N.am      1 <0>        -0.7211
     23 C16         1.4373   -2.5282   -7.4344 C.3       1 <0>         0.1427
     24 C17         2.6049   -1.5855   -7.7324 C.3       1 <0>        -0.1262
     25 C18         3.3380   -2.0626   -8.9877 C.3       1 <0>        -0.1197
     26 C19         2.3704   -2.0665  -10.1729 C.3       1 <0>        -0.1242
     27 C20         1.2028   -3.0092   -9.8749 C.3       1 <0>        -0.1184
     28 C21         0.4697   -2.5321   -8.6195 C.3       1 <0>        -0.1261
     29 H1          0.9765    1.8888   -0.0915 H         1 <0>         0.0930
     30 H2         -0.5851    1.8736   -0.9456 H         1 <0>         0.1008
     31 H3         -0.5441    1.9078    0.8335 H         1 <0>         0.1112
     32 H4         -1.0772   -0.3638    0.0577 H         1 <0>         0.1583
     33 H5         -1.2075    0.7009    3.2774 H         1 <0>         0.0961
     34 H6         -1.6359    0.1851    1.6253 H         1 <0>         0.0964
     35 H7         -2.9902   -0.9251    3.4935 H         1 <0>         0.1149
     36 H8         -2.1714   -2.0532    2.3817 H         1 <0>         0.0738
     37 H9          0.5245   -2.6506    5.0161 H         1 <0>         0.1115
     38 H10         0.0960   -3.1663    3.3640 H         1 <0>         0.0787
     39 H11         1.8753   -1.5487    3.1455 H         1 <0>         0.1145
     40 H12         1.0614   -0.4195    4.2598 H         1 <0>         0.0889
     41 H13        -0.2024   -1.9844    6.8315 H         1 <0>         0.0918
     42 H14        -1.7232   -2.5832    7.5364 H         1 <0>         0.0994
     43 H15        -0.8085   -3.6009    6.3980 H         1 <0>         0.0925
     44 H16         0.9578   -2.3774   -0.3931 H         1 <0>         0.1345
     45 H17        -0.5828   -2.2901   -1.2792 H         1 <0>         0.1299
     46 H18         2.1986   -2.2210   -2.5353 H         1 <0>         0.1001
     47 H19         1.0916   -3.6159   -2.5379 H         1 <0>         0.1211
     48 H20        -0.5786   -2.3194   -3.8017 H         1 <0>         0.1164
     49 H21         1.5085   -0.0907   -3.7479 H         1 <0>         0.0975
     50 H22        -0.0676   -0.0371   -4.5750 H         1 <0>         0.1196
     51 H23        -1.2199   -0.3233   -2.3987 H         1 <0>         0.1353
     52 H24        -0.1737    1.1160   -2.3815 H         1 <0>         0.1414
     53 H25        -0.0465   -1.5031   -6.3138 H         1 <0>         0.3996
     54 H26         1.8170   -3.5370   -7.2721 H         1 <0>         0.0915
     55 H27         2.2252   -0.5768   -7.8947 H         1 <0>         0.0636
     56 H28         3.2943   -1.5827   -6.8880 H         1 <0>         0.0649
     57 H29         4.1699   -1.3910   -9.2000 H         1 <0>         0.0682
     58 H30         3.7178   -3.0713   -8.8254 H         1 <0>         0.0661
     59 H31         1.9907   -1.0577  -10.3352 H         1 <0>         0.0636
     60 H32         2.8927   -2.4063  -11.0672 H         1 <0>         0.0684
     61 H33         0.5134   -3.0119  -10.7192 H         1 <0>         0.0714
     62 H34         1.5825   -4.0179   -9.7126 H         1 <0>         0.0669
     63 H35        -0.3622   -3.2037   -8.4072 H         1 <0>         0.0693
     64 H36         0.0899   -1.5234   -8.7818 H         1 <0>         0.0687
     65 H37         1.5086   -0.2338   -1.3241 H         1 <0>         0.4315
@<TRIPOS>BOND
     1    1    2 1
     2    1   29 1
     3    1   30 1
     4    1   31 1
     5    2    3 1
     6    2   14 1
     7    2   32 1
     8    3    4 2
     9    3    5 am
    10    5   10 1
    11    5    6 1
    12    6    7 1
    13    6   33 1
    14    6   34 1
    15    7    8 1
    16    7   35 1
    17    7   36 1
    18    8    9 1
    19    8   11 am
    20    9   10 1
    21    9   37 1
    22    9   38 1
    23   10   39 1
    24   10   40 1
    25   11   12 2
    26   11   13 1
    27   13   41 1
    28   13   42 1
    29   13   43 1
    30   14   19 1
    31   14   15 1
    32   14   65 1
    33   15   16 1
    34   15   44 1
    35   15   45 1
    36   16   17 1
    37   16   46 1
    38   16   47 1
    39   17   18 1
    40   17   20 1
    41   17   48 1
    42   18   19 1
    43   18   49 1
    44   18   50 1
    45   19   51 1
    46   19   52 1
    47   20   21 2
    48   20   22 am
    49   22   23 1
    50   22   53 1
    51   23   28 1
    52   23   24 1
    53   23   54 1
    54   24   25 1
    55   24   55 1
    56   24   56 1
    57   25   26 1
    58   25   57 1
    59   25   58 1
    60   26   27 1
    61   26   59 1
    62   26   60 1
    63   27   28 1
    64   27   61 1
    65   27   62 1
    66   28   63 1
    67   28   64 1
@<TRIPOS>MOLECULE
ZINC66898944
   49    52     0     0     0
SMALL
USER_CHARGES

@<TRIPOS>ATOM
      1 C1         -0.0090    1.3626   -0.2031 C.ar      1 <0>        -0.0909
      2 C2          1.1772    2.0726   -0.2100 C.ar      1 <0>        -0.1310
      3 C3          2.3783    1.4178   -0.0143 C.ar      1 <0>        -0.1277
      4 C4          2.3967    0.0460    0.1899 C.ar      1 <0>         0.0789
      5 C5          1.2041   -0.6674    0.1993 C.ar      1 <0>         0.0720
      6 C6          0.0021   -0.0042    0.0008 C.ar      1 <0>        -0.0926
      7 O1          1.1988   -2.0127    0.4056 O.3       1 <0>        -0.2974
      8 C7          2.4447   -2.6958    0.2294 C.3       1 <0>         0.0171
      9 C8          3.5376   -1.8962    0.9515 C.3       1 <0>         0.0198
     10 O2          3.5877   -0.5857    0.3771 O.3       1 <0>        -0.3076
     11 C9          3.6695    2.1948   -0.0233 C.3       1 <0>         0.0878
     12 H1          4.4086    1.7087    0.6136 H         1 <0>         0.1512
     13 C10         4.2084    2.3285   -1.4695 C.3       1 <0>        -0.1298
     14 C11         5.0876    3.6020   -1.3598 C.3       1 <0>        -0.1394
     15 C12         4.3024    4.4819   -0.3646 C.3       1 <0>        -0.0165
     16 N1          3.4373    3.5842    0.4256 N.4       1 <0>        -0.3918
     17 C13         3.7673    3.7045    1.8520 C.3       1 <0>        -0.0029
     18 C14         3.4083    5.1088    2.3419 C.3       1 <0>        -0.1684
     19 C15         3.7520    5.2340    3.8275 C.3       1 <0>         0.1249
     20 N2          3.4082    6.5787    4.2965 N.am      1 <0>        -0.5805
     21 C16         4.2517    7.6293    4.2675 C.2       1 <0>         0.5215
     22 O3          5.3948    7.6397    3.8636 O.2       1 <0>        -0.4613
     23 C17         3.4738    8.7956    4.8439 C.3       1 <0>         0.0591
     24 N3          2.1588    8.2119    5.1605 N.am      1 <0>        -0.7231
     25 C18         2.2162    6.9167    4.8013 C.2       1 <0>         0.6993
     26 O4          1.2898    6.1397    4.9247 O.2       1 <0>        -0.5379
     27 H2         -0.9464    1.8776   -0.3528 H         1 <0>         0.1466
     28 H3          1.1652    3.1408   -0.3689 H         1 <0>         0.1247
     29 H4         -0.9259   -0.5565    0.0057 H         1 <0>         0.1488
     30 H5          2.3787   -3.6966    0.6562 H         1 <0>         0.1334
     31 H6          2.6798   -2.7633   -0.8328 H         1 <0>         0.0859
     32 H7          3.2994   -1.8235    2.0127 H         1 <0>         0.0860
     33 H8          4.5004   -2.3908    0.8233 H         1 <0>         0.1335
     34 H9          4.8094    1.4615   -1.7440 H         1 <0>         0.1197
     35 H10         3.3932    2.4766   -2.1778 H         1 <0>         0.1002
     36 H11         6.0730    3.3570   -0.9633 H         1 <0>         0.1012
     37 H12         5.1725    4.0963   -2.3276 H         1 <0>         0.1152
     38 H13         4.9951    5.0031    0.2962 H         1 <0>         0.1348
     39 H14         3.6920    5.2028   -0.9086 H         1 <0>         0.1323
     40 H15         3.2011    2.9659    2.4195 H         1 <0>         0.1344
     41 H16         4.8341    3.5318    1.9939 H         1 <0>         0.1357
     42 H17         3.9745    5.8473    1.7744 H         1 <0>         0.0938
     43 H18         2.3414    5.2814    2.1999 H         1 <0>         0.0955
     44 H19         3.1857    4.4955    4.3949 H         1 <0>         0.1088
     45 H20         4.8188    5.0614    3.9694 H         1 <0>         0.1067
     46 H21         3.9554    9.1686    5.7478 H         1 <0>         0.1319
     47 H22         3.3725    9.5912    4.1058 H         1 <0>         0.1304
     48 H23         1.3988    8.6723    5.5495 H         1 <0>         0.4477
     49 H24         2.4698    3.8308    0.2801 H         1 <0>         0.4197
@<TRIPOS>BOND
     1    1    6 ar
     2    1    2 ar
     3    1   27 1
     4    2    3 ar
     5    2   28 1
     6    3    4 ar
     7    3   11 1
     8    4   10 1
     9    4    5 ar
    10    5    6 ar
    11    5    7 1
    12    6   29 1
    13    7    8 1
    14    8    9 1
    15    8   30 1
    16    8   31 1
    17    9   10 1
    18    9   32 1
    19    9   33 1
    20   11   12 1
    21   11   16 1
    22   11   13 1
    23   13   14 1
    24   13   34 1
    25   13   35 1
    26   14   15 1
    27   14   36 1
    28   14   37 1
    29   15   16 1
    30   15   38 1
    31   15   39 1
    32   16   17 1
    33   16   49 1
    34   17   18 1
    35   17   40 1
    36   17   41 1
    37   18   19 1
    38   18   42 1
    39   18   43 1
    40   19   20 1
    41   19   44 1
    42   19   45 1
    43   20   25 am
    44   20   21 am
    45   21   22 2
    46   21   23 1
    47   23   24 1
    48   23   46 1
    49   23   47 1
    50   24   25 am
    51   24   48 1
    52   25   26 2
@<TRIPOS>MOLECULE
ZINC20078578
   30    31     0     0     0
SMALL
USER_CHARGES
6-amino-1-[(1R)-1-(2,4-dichlorophenyl)ethyl]pyrimidine-2,4-dione
@<TRIPOS>ATOM
      1 C1          2.8322    4.3081   -0.9345 C.3       1 <0>        -0.1840
      2 C2          1.7604    3.8083    0.0362 C.3       1 <0>         0.1893
      3 H1          2.2007    3.1700    0.8164 H         1 <0>         0.1078
      4 C3          0.7140    3.0358   -0.7252 C.ar      1 <0>        -0.0926
      5 C4         -0.4930    3.6321   -1.0392 C.ar      1 <0>        -0.0713
      6 C5         -1.4530    2.9244   -1.7373 C.ar      1 <0>        -0.0983
      7 C6         -1.2067    1.6182   -2.1220 C.ar      1 <0>        -0.0189
      8 C7          0.0007    1.0211   -1.8082 C.ar      1 <0>        -0.0981
      9 C8          0.9616    1.7303   -1.1097 C.ar      1 <0>        -0.0161
     10 Cl1         2.4772    0.9814   -0.7148 Cl        1 <0>        -0.0487
     11 Cl2        -2.4128    0.7294   -2.9990 Cl        1 <0>        -0.0485
     12 N1          1.1339    4.9523    0.7032 N.am      1 <0>        -0.5480
     13 C9          0.8969    4.9085    2.0557 C.2       1 <0>         0.4898
     14 C10         0.3161    5.9827    2.6705 C.2       1 <0>        -0.4165
     15 C11        -0.0336    7.1025    1.8998 C.2       1 <0>         0.5655
     16 O1         -0.5569    8.0699    2.4258 O.2       1 <0>        -0.5358
     17 N2          0.2120    7.1015    0.5748 N.am      1 <0>        -0.6798
     18 H2         -0.0595    7.9754   -0.0355 H         1 <0>         0.4587
     19 C12         0.7887    6.0378   -0.0134 C.2       1 <0>         0.7098
     20 O2          1.0015    6.0576   -1.2103 O.2       1 <0>        -0.5322
     21 N3          1.2446    3.7994    2.7834 N.pl3     1 <0>        -0.8630
     22 H3          3.5959    4.8719   -0.3788 H         1 <0>         0.0683
     23 H4          2.3686    4.9626   -1.6873 H         1 <0>         0.1170
     24 H5          3.3026    3.4491   -1.4353 H         1 <0>         0.0797
     25 H6         -0.6841    4.6529   -0.7427 H         1 <0>         0.1345
     26 H7         -2.3958    3.3908   -1.9823 H         1 <0>         0.1440
     27 H8          0.1935    0.0018   -2.1086 H         1 <0>         0.1500
     28 H9          0.1257    5.9683    3.7335 H         1 <0>         0.1614
     29 H10         1.0526    3.7695    3.8661 H         1 <0>         0.4528
     30 H11         1.7155    2.9396    2.2844 H         1 <0>         0.4230
@<TRIPOS>BOND
     1    1    2 1
     2    1   22 1
     3    1   23 1
     4    1   24 1
     5    2    3 1
     6    2    4 1
     7    2   12 1
     8    4    9 ar
     9    4    5 ar
    10    5    6 ar
    11    5   25 1
    12    6    7 ar
    13    6   26 1
    14    7    8 ar
    15    7   11 1
    16    8    9 ar
    17    8   27 1
    18    9   10 1
    19   12   19 am
    20   12   13 1
    21   13   14 2
    22   13   21 1
    23   14   15 1
    24   14   28 1
    25   15   16 2
    26   15   17 am
    27   17   18 1
    28   17   19 am
    29   19   20 2
    30   21   29 1
    31   21   30 1
@<TRIPOS>MOLECULE
ZINC39413590
   41    45     0     0     0
SMALL
USER_CHARGES

@<TRIPOS>ATOM
      1 C1         -0.0184    1.5028    0.0103 C.3       1 <0>        -0.1161
      2 C2          0.0021   -0.0041    0.0020 C.ar      1 <0>        -0.1056
      3 C3          0.0054   -0.6732   -1.2050 C.ar      1 <0>        -0.0728
      4 C4          0.0234   -2.0573   -1.2773 C.ar      1 <0>        -0.1288
      5 C5          0.0379   -2.7594   -0.0708 C.ar      1 <0>         0.1460
      6 C6          0.0349   -2.0681    1.1463 C.ar      1 <0>        -0.1747
      7 C7          0.0229   -0.6915    1.2109 C.ar      1 <0>        -0.0275
      8 C8          0.0520   -3.1101    2.2223 C.3       1 <0>         0.4409
      9 C9          0.0633   -4.4234    1.4672 C.2       1 <0>         0.5185
     10 O1          0.0763   -5.5343    1.9538 O.2       1 <0>        -0.4577
     11 N1          0.0562   -4.1247    0.1516 N.am      1 <0>        -0.6506
     12 N2          1.2844   -2.9967    3.0191 N.pl3     1 <0>        -0.6726
     13 C10         1.2603   -2.0966    4.0573 C.2       1 <0>         0.0882
     14 C11         0.0673   -1.6892    4.6718 C.2       1 <0>        -0.2835
     15 C12         0.2132   -0.7148    5.7405 C.2       1 <0>        -0.0195
     16 C13         1.4887   -0.3506    5.9982 C.2       1 <0>        -0.2185
     17 S1          2.4672   -1.2787    4.8490 S.3       1 <0>         0.2141
     18 C14         1.9552    0.6262    7.0323 C.3       1 <0>        -0.0303
     19 C15         0.7438    1.4414    7.5082 C.3       1 <0>        -0.1136
     20 C16        -0.4053    0.4800    7.8253 C.3       1 <0>        -0.1219
     21 C17        -0.9481   -0.1280    6.5305 C.3       1 <0>        -0.0600
     22 C18        -1.1987   -2.2857    4.1870 C.2       1 <0>         0.6028
     23 O2         -2.2468   -2.1217    4.7841 O.2       1 <0>        -0.5196
     24 N3         -1.1414   -3.0187    3.0534 N.am      1 <0>        -0.7205
     25 H1          1.0042    1.8801    0.0026 H         1 <0>         0.0735
     26 H2         -0.5455    1.8639   -0.8728 H         1 <0>         0.0701
     27 H3         -0.5286    1.8543    0.9071 H         1 <0>         0.0685
     28 H4         -0.0067   -0.1011   -2.1209 H         1 <0>         0.1334
     29 H5          0.0257   -2.5710   -2.2273 H         1 <0>         0.1415
     30 H6          0.0252   -0.1705    2.1569 H         1 <0>         0.1344
     31 H7          0.0631   -4.7890   -0.5551 H         1 <0>         0.4248
     32 H8          2.0711   -3.5289    2.8222 H         1 <0>         0.4264
     33 H9          2.3905    0.0891    7.8750 H         1 <0>         0.0797
     34 H10         2.6993    1.2938    6.5977 H         1 <0>         0.0786
     35 H11         1.0096    2.0011    8.4050 H         1 <0>         0.0734
     36 H12         0.4364    2.1314    6.7225 H         1 <0>         0.0680
     37 H13        -0.0423   -0.3164    8.4749 H         1 <0>         0.0658
     38 H14        -1.2027    1.0236    8.3320 H         1 <0>         0.0700
     39 H15        -1.4374    0.6466    5.9401 H         1 <0>         0.0776
     40 H16        -1.6632   -0.9156    6.7683 H         1 <0>         0.0885
     41 H17        -1.9330   -3.5080    2.7797 H         1 <0>         0.4093
@<TRIPOS>BOND
     1    1    2 1
     2    1   25 1
     3    1   26 1
     4    1   27 1
     5    2    7 ar
     6    2    3 ar
     7    3    4 ar
     8    3   28 1
     9    4    5 ar
    10    4   29 1
    11    5   11 1
    12    5    6 ar
    13    6    7 ar
    14    6    8 1
    15    7   30 1
    16    8   24 1
    17    8    9 1
    18    8   12 1
    19    9   10 2
    20    9   11 am
    21   11   31 1
    22   12   13 1
    23   12   32 1
    24   13   17 1
    25   13   14 2
    26   14   15 1
    27   14   22 1
    28   15   21 1
    29   15   16 2
    30   16   17 1
    31   16   18 1
    32   18   19 1
    33   18   33 1
    34   18   34 1
    35   19   20 1
    36   19   35 1
    37   19   36 1
    38   20   21 1
    39   20   37 1
    40   20   38 1
    41   21   39 1
    42   21   40 1
    43   22   23 2
    44   22   24 am
    45   24   41 1
@<TRIPOS>MOLECULE
ZINC44785924
   50    51     0     0     0
SMALL
USER_CHARGES

@<TRIPOS>ATOM
      1 C1         -1.2479    0.6900   -0.3251 C.3       1 <0>        -0.1473
      2 C2         -0.9116   -0.7985   -0.2157 C.3       1 <0>        -0.0893
      3 H1         -1.8326   -1.3726   -0.1145 H         1 <0>         0.0722
      4 C3         -0.1668   -1.2470   -1.4746 C.3       1 <0>        -0.1165
      5 C4          0.1696   -2.7356   -1.3652 C.3       1 <0>        -0.1170
      6 C5          1.0539   -2.9698   -0.1388 C.3       1 <0>        -0.1264
      7 C6          0.3090   -2.5213    1.1202 C.3       1 <0>         0.1384
      8 H2         -0.6120   -3.0954    1.2213 H         1 <0>         0.1021
      9 C7         -0.0273   -1.0327    1.0107 C.3       1 <0>        -0.1205
     10 N1          1.1557   -2.7456    2.2945 N.am      1 <0>        -0.5999
     11 C8          2.4569   -2.0803    2.3972 C.3       1 <0>         0.0488
     12 C9          0.7377   -3.5640    3.2803 C.2       1 <0>         0.5310
     13 O1         -0.2923   -4.1913    3.1518 O.2       1 <0>        -0.5242
     14 C10         1.5500   -3.6995    4.5424 C.3       1 <0>        -0.0145
     15 C11         0.8065   -4.5973    5.5335 C.3       1 <0>        -0.0906
     16 C12        -0.5515   -3.9756    5.8653 C.3       1 <0>        -0.1293
     17 C13        -0.3413   -2.5937    6.4875 C.3       1 <0>        -0.1224
     18 C14         0.4021   -1.6959    5.4964 C.3       1 <0>        -0.1230
     19 C15         1.7601   -2.3176    5.1645 C.3       1 <0>        -0.1099
     20 C16         2.8876   -4.3120    4.2155 C.2       1 <0>         0.3830
     21 N2          3.9760   -3.7163    4.5754 N.2       1 <0>        -0.4160
     22 O2          5.2328   -4.2917    4.2682 O.3       1 <0>        -0.4242
     23 N3          2.9497   -5.5066    3.5332 N.pl3     1 <0>        -0.8653
     24 H3         -0.3269    1.2641   -0.4263 H         1 <0>         0.0545
     25 H4         -1.8779    0.8569   -1.1988 H         1 <0>         0.0565
     26 H5         -1.7786    1.0095    0.5718 H         1 <0>         0.0550
     27 H6         -0.7967   -1.0801   -2.3484 H         1 <0>         0.0649
     28 H7          0.7543   -0.6729   -1.5758 H         1 <0>         0.0628
     29 H8         -0.7514   -3.3097   -1.2640 H         1 <0>         0.0650
     30 H9          0.7002   -3.0551   -2.2621 H         1 <0>         0.0665
     31 H10         1.2935   -4.0303   -0.0608 H         1 <0>         0.0641
     32 H11         1.9749   -2.3957   -0.2399 H         1 <0>         0.0654
     33 H12         0.8937   -0.4586    0.9096 H         1 <0>         0.0662
     34 H13        -0.5579   -0.7132    1.9076 H         1 <0>         0.0659
     35 H14         2.3223   -1.0810    2.8111 H         1 <0>         0.0620
     36 H15         3.1104   -2.6590    3.0500 H         1 <0>         0.0974
     37 H16         2.9061   -2.0058    1.4068 H         1 <0>         0.0691
     38 H17         0.6568   -5.5818    5.0902 H         1 <0>         0.0728
     39 H18         1.3941   -4.6954    6.4463 H         1 <0>         0.0750
     40 H19        -1.1390   -3.8775    4.9525 H         1 <0>         0.0884
     41 H20        -1.0811   -4.6152    6.5714 H         1 <0>         0.0672
     42 H21        -1.3088   -2.1507    6.7239 H         1 <0>         0.0646
     43 H22         0.2462   -2.6917    7.4003 H         1 <0>         0.0636
     44 H23        -0.1854   -1.5978    4.5836 H         1 <0>         0.0602
     45 H24         0.5518   -0.7114    5.9396 H         1 <0>         0.0714
     46 H25         2.3477   -2.4157    6.0774 H         1 <0>         0.0863
     47 H26         2.2898   -1.6780    4.4585 H         1 <0>         0.0861
     48 H27         5.9886   -3.7740    4.5777 H         1 <0>         0.4014
     49 H28         2.1370   -5.9161    3.1972 H         1 <0>         0.3988
     50 H29         3.8060   -5.9386    3.3886 H         1 <0>         0.4099
@<TRIPOS>BOND
     1    1    2 1
     2    1   24 1
     3    1   25 1
     4    1   26 1
     5    2    3 1
     6    2    9 1
     7    2    4 1
     8    4    5 1
     9    4   27 1
    10    4   28 1
    11    5    6 1
    12    5   29 1
    13    5   30 1
    14    6    7 1
    15    6   31 1
    16    6   32 1
    17    7    8 1
    18    7    9 1
    19    7   10 1
    20    9   33 1
    21    9   34 1
    22   10   11 1
    23   10   12 am
    24   11   35 1
    25   11   36 1
    26   11   37 1
    27   12   13 2
    28   12   14 1
    29   14   19 1
    30   14   15 1
    31   14   20 1
    32   15   16 1
    33   15   38 1
    34   15   39 1
    35   16   17 1
    36   16   40 1
    37   16   41 1
    38   17   18 1
    39   17   42 1
    40   17   43 1
    41   18   19 1
    42   18   44 1
    43   18   45 1
    44   19   46 1
    45   19   47 1
    46   20   21 2
    47   20   23 1
    48   21   22 1
    49   22   48 1
    50   23   49 1
    51   23   50 1
@<TRIPOS>MOLECULE
ZINC52860709
   40    41     0     0     0
SMALL
USER_CHARGES

@<TRIPOS>ATOM
      1 C1         -0.0274    1.5678    0.1160 C.3       1 <0>        -0.1445
      2 C2         -0.0203    0.0379    0.1171 C.3       1 <0>         0.0714
      3 H1         -1.0454   -0.3309    0.1513 H         1 <0>         0.0600
      4 C3          0.6650   -0.4719   -1.1559 C.3       1 <0>         0.1265
      5 N1          0.8266   -1.9302   -1.0438 N.pl3     1 <0>        -0.6591
      6 C4          1.4401   -2.4660    0.1817 C.3       1 <0>         0.1356
      7 C5          0.7170   -1.8591    1.3895 C.3       1 <0>         0.0979
      8 O1          0.6959   -0.4355    1.2602 O.3       1 <0>        -0.3681
      9 C6         -0.7178   -2.3875    1.4447 C.3       1 <0>        -0.1750
     10 C7          1.4544   -2.2447    2.6734 C.3       1 <0>        -0.1378
     11 C8          0.4107   -2.7784   -2.0674 C.ar      1 <0>         0.2271
     12 C9         -0.8510   -3.3562   -2.0246 C.ar      1 <0>        -0.1185
     13 C10        -1.2617   -4.1967   -3.0400 C.ar      1 <0>        -0.0841
     14 C11        -0.4205   -4.4693   -4.1071 C.ar      1 <0>        -0.0406
     15 C12         0.8364   -3.9026   -4.1648 C.ar      1 <0>        -0.0812
     16 C13         1.2618   -3.0477   -3.1477 C.ar      1 <0>        -0.0517
     17 C14         2.6050   -2.4331   -3.2066 C.2       1 <0>         0.4029
     18 N2          3.0412   -1.7249   -2.2053 N.2       1 <0>        -0.3737
     19 O2          4.3663   -1.2258   -2.2152 O.3       1 <0>        -0.4315
     20 N3          3.3992   -2.6109   -4.3270 N.pl3     1 <0>        -0.8724
     21 Cl1        -0.9501   -5.5285   -5.3765 Cl        1 <0>        -0.0601
     22 H2          0.9980    1.9359    0.0818 H         1 <0>         0.0640
     23 H3         -0.5720    1.9280   -0.7568 H         1 <0>         0.0700
     24 H4         -0.5132    1.9296    1.0222 H         1 <0>         0.0646
     25 H5          0.0492   -0.2364   -2.0238 H         1 <0>         0.0680
     26 H6          1.6426   -0.0012   -1.2602 H         1 <0>         0.0675
     27 H7          1.3374   -3.5510    0.1995 H         1 <0>         0.0697
     28 H8          2.4957   -2.1961    0.2121 H         1 <0>         0.0659
     29 H9         -0.7026   -3.4615    1.6300 H         1 <0>         0.0640
     30 H10        -1.2584   -1.8877    2.2484 H         1 <0>         0.0613
     31 H11        -1.2146   -2.1897    0.4948 H         1 <0>         0.0626
     32 H12         2.4756   -1.8657    2.6337 H         1 <0>         0.0643
     33 H13         0.9397   -1.8129    3.5317 H         1 <0>         0.0653
     34 H14         1.4732   -3.3303    2.7695 H         1 <0>         0.0703
     35 H15        -1.5117   -3.1482   -1.1960 H         1 <0>         0.1397
     36 H16        -2.2437   -4.6446   -3.0023 H         1 <0>         0.1401
     37 H17         1.4887   -4.1178   -4.9982 H         1 <0>         0.1360
     38 H18         4.6239   -0.7776   -1.3980 H         1 <0>         0.3998
     39 H19         3.0742   -3.1387   -5.0732 H         1 <0>         0.3943
     40 H20         4.2806   -2.2077   -4.3657 H         1 <0>         0.4096
@<TRIPOS>BOND
     1    1    2 1
     2    1   22 1
     3    1   23 1
     4    1   24 1
     5    2    3 1
     6    2    8 1
     7    2    4 1
     8    4    5 1
     9    4   25 1
    10    4   26 1
    11    5    6 1
    12    5   11 1
    13    6    7 1
    14    6   27 1
    15    6   28 1
    16    7    8 1
    17    7    9 1
    18    7   10 1
    19    9   29 1
    20    9   30 1
    21    9   31 1
    22   10   32 1
    23   10   33 1
    24   10   34 1
    25   11   16 ar
    26   11   12 ar
    27   12   13 ar
    28   12   35 1
    29   13   14 ar
    30   13   36 1
    31   14   15 ar
    32   14   21 1
    33   15   16 ar
    34   15   37 1
    35   16   17 1
    36   17   18 2
    37   17   20 1
    38   18   19 1
    39   19   38 1
    40   20   39 1
    41   20   40 1
@<TRIPOS>MOLECULE
ZINC61856193
   31    32     0     0     0
SMALL
USER_CHARGES

@<TRIPOS>ATOM
      1 C1          1.4673    0.9892   -0.6762 C.3       1 <0>        -0.0798
      2 C2          0.6726   -0.2385   -0.3124 C.2       1 <0>         0.1061
      3 C3         -0.6792   -0.4555   -0.6043 C.2       1 <0>        -0.1772
      4 C4         -1.0221   -1.6700   -0.1146 C.2       1 <0>         0.1098
      5 N1          0.0824   -2.2043    0.4698 N.pl3     1 <0>        -0.3282
      6 N2          1.1302   -1.2856    0.3252 N.2       1 <0>        -0.2711
      7 C5          0.1605   -3.4521    1.0994 C.ar      1 <0>         0.1845
      8 C6         -0.4532   -4.5589    0.5239 C.ar      1 <0>        -0.1218
      9 C7         -0.3786   -5.7887    1.1404 C.ar      1 <0>        -0.0619
     10 C8          0.3145   -5.9236    2.3445 C.ar      1 <0>        -0.0393
     11 C9          0.9305   -4.8103    2.9204 C.ar      1 <0>         0.0175
     12 C10         0.8559   -3.5827    2.2950 C.ar      1 <0>        -0.1018
     13 Cl1         1.7939   -4.9720    4.4177 Cl        1 <0>        -0.0057
     14 C11         0.3961   -7.2425    3.0092 C.2       1 <0>         0.3949
     15 N3          1.0427   -7.3665    4.1317 N.2       1 <0>        -0.3803
     16 O1          1.1207   -8.6291    4.7680 O.3       1 <0>        -0.4244
     17 N4         -0.2157   -8.3452    2.4370 N.pl3     1 <0>        -0.8681
     18 C12        -2.3821   -2.3132   -0.2018 C.3       1 <0>        -0.1021
     19 Cl2        -1.7308    0.6402   -1.4452 Cl        1 <0>        -0.0277
     20 H1          1.9174    0.8525   -1.6595 H         1 <0>         0.0863
     21 H2          0.8073    1.8565   -0.6962 H         1 <0>         0.0856
     22 H3          2.2519    1.1467    0.0639 H         1 <0>         0.0817
     23 H4         -0.9894   -4.4545   -0.4077 H         1 <0>         0.1462
     24 H5         -0.8563   -6.6476    0.6927 H         1 <0>         0.1478
     25 H6          1.3353   -2.7219    2.7372 H         1 <0>         0.1517
     26 H7          1.6211   -8.6222    5.5954 H         1 <0>         0.4026
     27 H8         -0.6977   -8.2527    1.6003 H         1 <0>         0.3953
     28 H9         -0.1622   -9.2101    2.8729 H         1 <0>         0.4123
     29 H10        -2.4169   -2.9737   -1.0682 H         1 <0>         0.0900
     30 H11        -2.5695   -2.8909    0.7033 H         1 <0>         0.0819
     31 H12        -3.1438   -1.5401   -0.3036 H         1 <0>         0.0952
@<TRIPOS>BOND
     1    1    2 1
     2    1   20 1
     3    1   21 1
     4    1   22 1
     5    2    6 2
     6    2    3 1
     7    3    4 2
     8    3   19 1
     9    4    5 1
    10    4   18 1
    11    5    6 1
    12    5    7 1
    13    7   12 ar
    14    7    8 ar
    15    8    9 ar
    16    8   23 1
    17    9   10 ar
    18    9   24 1
    19   10   11 ar
    20   10   14 1
    21   11   12 ar
    22   11   13 1
    23   12   25 1
    24   14   15 2
    25   14   17 1
    26   15   16 1
    27   16   26 1
    28   17   27 1
    29   17   28 1
    30   18   29 1
    31   18   30 1
    32   18   31 1
@<TRIPOS>MOLECULE
ZINC00921406
   41    44     0     0     0
SMALL
USER_CHARGES
[2-(trifluoromethyl)phenyl]BLAHtrione
@<TRIPOS>ATOM
      1 C1         -1.8810    2.7531    3.5982 C.ar      1 <0>        -0.0935
      2 C2         -1.9638    1.4192    3.2439 C.ar      1 <0>        -0.1226
      3 C3         -1.4514    0.9927    2.0332 C.ar      1 <0>        -0.0755
      4 C4         -0.8568    1.9000    1.1760 C.ar      1 <0>        -0.1534
      5 C5         -0.7697    3.2326    1.5323 C.ar      1 <0>        -0.0187
      6 C6         -1.2858    3.6599    2.7417 C.ar      1 <0>        -0.1149
      7 C7         -0.1161    4.2205    0.6007 C.3       1 <0>         0.0811
      8 H1          0.2461    3.6930   -0.2817 H         1 <0>         0.1096
      9 C8         -1.1296    5.2440    0.1800 C.2       1 <0>        -0.2990
     10 C9         -1.1364    6.4898    0.7308 C.2       1 <0>         0.4402
     11 N1         -2.0810    7.4037    0.3302 N.am      1 <0>        -0.6475
     12 H2         -2.0904    8.3187    0.7335 H         1 <0>         0.4412
     13 C10        -2.9936    7.0735   -0.6022 C.2       1 <0>         0.7163
     14 O1         -3.8243    7.8928   -0.9442 O.2       1 <0>        -0.5322
     15 N2         -3.0002    5.8496   -1.1610 N.am      1 <0>        -0.6628
     16 H3         -3.6856    5.6247   -1.8535 H         1 <0>         0.4421
     17 C11        -2.0914    4.9241   -0.7958 C.2       1 <0>         0.5586
     18 O2         -2.1023    3.8178   -1.3074 O.2       1 <0>        -0.4805
     19 N3         -0.2024    6.8301    1.6769 N.pl3     1 <0>        -0.6381
     20 C12         0.9586    6.1152    1.8007 C.2       1 <0>         0.2113
     21 C13         1.0519    4.8640    1.3039 C.2       1 <0>        -0.2474
     22 C14         2.2393    4.1211    1.4292 C.2       1 <0>         0.3893
     23 O3          2.2955    3.0026    0.9576 O.2       1 <0>        -0.4349
     24 C15         3.4413    4.6854    2.1358 C.3       1 <0>        -0.1584
     25 C16         2.9719    5.6912    3.1923 C.3       1 <0>        -0.1130
     26 C17         2.1285    6.7630    2.4998 C.3       1 <0>        -0.0931
     27 C18        -0.2982    1.4349   -0.1441 C.3       1 <0>         0.4861
     28 F1         -0.3737    0.0399   -0.2169 F         1 <0>        -0.1883
     29 F2          1.0378    1.8359   -0.2524 F         1 <0>        -0.1496
     30 F3         -1.0399    1.9973   -1.1885 F         1 <0>        -0.1489
     31 H4         -2.2811    3.0863    4.5444 H         1 <0>         0.1287
     32 H5         -2.4286    0.7105    3.9133 H         1 <0>         0.1329
     33 H6         -1.5158   -0.0493    1.7566 H         1 <0>         0.1374
     34 H7         -1.2207    4.7018    3.0186 H         1 <0>         0.1199
     35 H8         -0.3666    7.5846    2.2640 H         1 <0>         0.4219
     36 H9          3.9473    3.9440    2.5766 H         1 <0>         0.0892
     37 H10         4.0866    5.1865    1.4143 H         1 <0>         0.1018
     38 H11         2.3691    5.1798    3.9428 H         1 <0>         0.0773
     39 H12         3.8369    6.1522    3.6691 H         1 <0>         0.0903
     40 H13         2.7421    7.2892    1.7685 H         1 <0>         0.1050
     41 H14         1.7608    7.4718    3.2417 H         1 <0>         0.0924
@<TRIPOS>BOND
     1    1    6 ar
     2    1    2 ar
     3    1   31 1
     4    2    3 ar
     5    2   32 1
     6    3    4 ar
     7    3   33 1
     8    4    5 ar
     9    4   27 1
    10    5    6 ar
    11    5    7 1
    12    6   34 1
    13    7    8 1
    14    7   21 1
    15    7    9 1
    16    9   17 1
    17    9   10 2
    18   10   11 1
    19   10   19 1
    20   11   12 1
    21   11   13 am
    22   13   14 2
    23   13   15 am
    24   15   16 1
    25   15   17 am
    26   17   18 2
    27   19   20 1
    28   19   35 1
    29   20   26 1
    30   20   21 2
    31   21   22 1
    32   22   23 2
    33   22   24 1
    34   24   25 1
    35   24   36 1
    36   24   37 1
    37   25   26 1
    38   25   38 1
    39   25   39 1
    40   26   40 1
    41   26   41 1
    42   27   28 1
    43   27   29 1
    44   27   30 1
@<TRIPOS>MOLECULE
ZINC20756298
   42    45     0     0     0
SMALL
USER_CHARGES
(3aS,4S,9bR)-4-(4-nitrophenyl)-3a,4,5,9b-tetrahydro-3H-cyclopenta[c]quinoline-6-carboxamide
@<TRIPOS>ATOM
      1 C1         -7.3442    4.7617   -0.8246 C.ar      1 <0>        -0.1800
      2 C2         -6.4689    5.1122    0.1872 C.ar      1 <0>        -0.0459
      3 C3         -5.1333    4.7405    0.1374 C.ar      1 <0>        -0.1585
      4 C4         -4.6712    4.0060   -0.9414 C.ar      1 <0>         0.2805
      5 C5         -5.5599    3.6483   -1.9737 C.ar      1 <0>        -0.2187
      6 C6         -6.8993    4.0325   -1.9054 C.ar      1 <0>        -0.0456
      7 C7         -5.0749    2.8674   -3.1263 C.2       1 <0>         0.5785
      8 O1         -3.9409    2.4284   -3.1294 O.2       1 <0>        -0.5634
      9 N1         -5.8883    2.6402   -4.1766 N.am      1 <0>        -0.8731
     10 N2         -3.3505    3.5990   -1.0489 N.pl3     1 <0>        -0.7333
     11 C8         -2.4382    4.4833   -0.3228 C.3       1 <0>         0.1732
     12 H1         -2.5067    5.4801   -0.7829 H         1 <0>         0.0851
     13 C9         -2.8408    4.5281    1.1528 C.3       1 <0>        -0.0966
     14 H2         -2.7497    3.5078    1.5537 H         1 <0>         0.1012
     15 C10        -4.2437    5.1611    1.2704 C.3       1 <0>        -0.0054
     16 H3         -4.7831    4.8580    2.1799 H         1 <0>         0.1005
     17 C11        -3.9839    6.6491    1.2173 C.2       1 <0>        -0.1597
     18 C12        -2.7395    6.9092    1.5306 C.2       1 <0>        -0.1706
     19 C13        -1.9914    5.6294    1.8469 C.3       1 <0>        -0.0930
     20 C14        -1.0297    3.9612   -0.4438 C.ar      1 <0>        -0.0315
     21 C15        -0.7884    2.6017   -0.3780 C.ar      1 <0>        -0.1104
     22 C16         0.5041    2.1232   -0.4841 C.ar      1 <0>        -0.0474
     23 C17         1.5542    3.0034   -0.6667 C.ar      1 <0>        -0.0444
     24 C18         1.3124    4.3626   -0.7378 C.ar      1 <0>        -0.0498
     25 C19         0.0204    4.8415   -0.6263 C.ar      1 <0>        -0.1073
     26 N3          2.9376    2.4906   -0.7865 N.pl3     1 <0>         0.0268
     27 O2          3.1506    1.2930   -0.7242 O.2       1 <0>        -0.1574
     28 O3          3.8628    3.2662   -0.9473 O.3       1 <0>        -0.1573
     29 H4         -8.3804    5.0605   -0.7670 H         1 <0>         0.1255
     30 H5         -6.8308    5.6837    1.0291 H         1 <0>         0.1248
     31 H6         -7.5836    3.7595   -2.6951 H         1 <0>         0.1230
     32 H7         -5.5264    2.0575   -5.0366 H         1 <0>         0.4255
     33 H8         -6.9141    3.0374   -4.1739 H         1 <0>         0.4196
     34 H9         -2.9555    2.7294   -1.5946 H         1 <0>         0.4537
     35 H10        -4.6707    7.4704    0.9646 H         1 <0>         0.1311
     36 H11        -2.3792    7.9485    1.5354 H         1 <0>         0.1320
     37 H12        -1.9442    5.4294    2.9275 H         1 <0>         0.0840
     38 H13        -0.9741    5.6260    1.4286 H         1 <0>         0.0746
     39 H14        -1.6093    1.9136   -0.2398 H         1 <0>         0.1473
     40 H15         0.6931    1.0612   -0.4289 H         1 <0>         0.1560
     41 H16         2.1328    5.0503   -0.8807 H         1 <0>         0.1565
     42 H17        -0.1686    5.9034   -0.6822 H         1 <0>         0.1496
@<TRIPOS>BOND
     1    1    6 ar
     2    1    2 ar
     3    1   29 1
     4    2    3 ar
     5    2   30 1
     6    3   15 1
     7    3    4 ar
     8    4    5 ar
     9    4   10 1
    10    5    6 ar
    11    5    7 1
    12    6   31 1
    13    7    8 2
    14    7    9 am
    15    9   32 1
    16    9   33 1
    17   10   11 1
    18   10   34 1
    19   11   12 1
    20   11   13 1
    21   11   20 1
    22   13   14 1
    23   13   19 1
    24   13   15 1
    25   15   16 1
    26   15   17 1
    27   17   18 2
    28   17   35 1
    29   18   19 1
    30   18   36 1
    31   19   37 1
    32   19   38 1
    33   20   25 ar
    34   20   21 ar
    35   21   22 ar
    36   21   39 1
    37   22   23 ar
    38   22   40 1
    39   23   24 ar
    40   23   26 1
    41   24   25 ar
    42   24   41 1
    43   25   42 1
    44   26   27 2
    45   26   28 1
@<TRIPOS>MOLECULE
ZINC39468928
   46    49     0     0     0
SMALL
USER_CHARGES

@<TRIPOS>ATOM
      1 C1         -0.0225    1.8097    0.0120 C.3       1 <0>        -0.1633
      2 S1          0.0021   -0.0041    0.0020 S.3       1 <0>        -0.0623
      3 C2         -1.7016   -0.4536    0.0159 C.2       1 <0>        -0.0694
      4 C3         -2.6499    0.4901    0.0244 C.2       1 <0>        -0.1920
      5 C4         -4.0989    0.0855    0.0480 C.3       1 <0>        -0.0484
      6 H1         -4.4245   -0.1449   -0.9664 H         1 <0>         0.1158
      7 C5         -4.9599    1.2101    0.6090 C.3       1 <0>        -0.1240
      8 C6         -4.6174    1.4744    2.0805 C.3       1 <0>        -0.0409
      9 H2         -3.5817    1.8052    2.1578 H         1 <0>         0.1479
     10 C7         -5.5479    2.5937    2.5654 C.3       1 <0>         0.0818
     11 O1         -5.2379    2.9196    3.9321 O.3       1 <0>        -0.6996
     12 P1         -5.1461    1.6934    4.9979 P.3       1 <0>         2.2099
     13 O2         -6.5611    1.2733    5.4544 O.2       1 <0>        -1.0451
     14 N1         -4.4199    0.4597    4.1769 N.pl3     1 <0>        -0.9956
     15 N2         -4.7983    0.2521    2.8671 N.4       1 <0>        -0.1413
     16 C8         -3.9250   -0.8180    2.3600 C.3       1 <0>        -0.0093
     17 C9         -4.2726   -1.1553    0.9283 C.3       1 <0>        -0.0686
     18 H3         -5.3018   -1.5097    0.8724 H         1 <0>         0.1157
     19 C10        -3.3197   -2.2272    0.4557 C.2       1 <0>        -0.1386
     20 C11        -2.1000   -1.8818    0.0120 C.2       1 <0>         0.0097
     21 C12        -1.1572   -2.9185   -0.4724 C.ar      1 <0>        -0.0942
     22 C13        -1.3429   -3.5039   -1.7232 C.ar      1 <0>        -0.0824
     23 C14        -0.4626   -4.4684   -2.1694 C.ar      1 <0>        -0.1278
     24 C15         0.6047   -4.8574   -1.3789 C.ar      1 <0>        -0.0921
     25 C16         0.7980   -4.2837   -0.1367 C.ar      1 <0>        -0.1446
     26 C17        -0.0743   -3.3092    0.3214 C.ar      1 <0>         0.1319
     27 O3          0.1182   -2.7402    1.5398 O.3       1 <0>        -0.4839
     28 O4         -4.2915    2.1062    6.2171 O.3       1 <0>        -1.0215
     29 H4          1.0001    2.1870    0.0043 H         1 <0>         0.1136
     30 H5         -0.5497    2.1708   -0.8711 H         1 <0>         0.0842
     31 H6         -0.5327    2.1613    0.9088 H         1 <0>         0.0828
     32 H7         -2.3773    1.5351    0.0149 H         1 <0>         0.1304
     33 H8         -4.7854    2.1179    0.0314 H         1 <0>         0.1224
     34 H9         -6.0106    0.9315    0.5296 H         1 <0>         0.1012
     35 H10        -5.4097    3.4766    1.9413 H         1 <0>         0.1325
     36 H11        -6.5834    2.2600    2.4976 H         1 <0>         0.0852
     37 H12        -3.7517   -0.1002    4.6024 H         1 <0>         0.4401
     38 H13        -2.8877   -0.4861    2.4058 H         1 <0>         0.1336
     39 H14        -4.0448   -1.7042    2.9832 H         1 <0>         0.1386
     40 H15        -3.6183   -3.2650    0.4703 H         1 <0>         0.1402
     41 H16        -2.1751   -3.2034   -2.3426 H         1 <0>         0.1272
     42 H17        -0.6073   -4.9216   -3.1390 H         1 <0>         0.1298
     43 H18         1.2895   -5.6130   -1.7344 H         1 <0>         0.1302
     44 H19         1.6323   -4.5919    0.4759 H         1 <0>         0.1331
     45 H20        -0.3248   -3.2027    2.2643 H         1 <0>         0.3865
     46 H21        -5.7647   -0.0357    2.8309 H         1 <0>         0.4208
@<TRIPOS>BOND
     1    1    2 1
     2    1   29 1
     3    1   30 1
     4    1   31 1
     5    2    3 1
     6    3   20 1
     7    3    4 2
     8    4    5 1
     9    4   32 1
    10    5    6 1
    11    5   17 1
    12    5    7 1
    13    7    8 1
    14    7   33 1
    15    7   34 1
    16    8    9 1
    17    8   15 1
    18    8   10 1
    19   10   11 1
    20   10   35 1
    21   10   36 1
    22   11   12 1
    23   12   13 2
    24   12   14 1
    25   12   28 1
    26   14   15 1
    27   14   37 1
    28   15   16 1
    29   15   46 1
    30   16   17 1
    31   16   38 1
    32   16   39 1
    33   17   18 1
    34   17   19 1
    35   19   20 2
    36   19   40 1
    37   20   21 1
    38   21   26 ar
    39   21   22 ar
    40   22   23 ar
    41   22   41 1
    42   23   24 ar
    43   23   42 1
    44   24   25 ar
    45   24   43 1
    46   25   26 ar
    47   25   44 1
    48   26   27 1
    49   27   45 1
@<TRIPOS>MOLECULE
ZINC51710161
   51    52     0     0     0
SMALL
USER_CHARGES

@<TRIPOS>ATOM
      1 C1         -0.0178    1.5224    0.0153 C.3       1 <0>        -0.1586
      2 C2          0.0037   -0.0074    0.0010 C.3       1 <0>         0.2029
      3 H1          0.5125   -0.3553   -0.8979 H         1 <0>         0.0966
      4 C3          0.7348   -0.5109    1.2188 C.ar      1 <0>        -0.0987
      5 C4          0.0867   -0.5711    2.4383 C.ar      1 <0>        -0.1121
      6 C5          0.7574   -1.0329    3.5554 C.ar      1 <0>        -0.1107
      7 C6          2.0760   -1.4350    3.4528 C.ar      1 <0>        -0.0652
      8 C7          2.7238   -1.3757    2.2331 C.ar      1 <0>        -0.1156
      9 C8          2.0518   -0.9179    1.1152 C.ar      1 <0>        -0.1029
     10 C9          2.8074   -1.9376    4.6708 C.3       1 <0>        -0.0317
     11 C10         2.0878   -3.1683    5.2262 C.3       1 <0>        -0.1394
     12 C11         4.2395   -2.3145    4.2863 C.3       1 <0>        -0.1462
     13 C12         2.8375   -0.8402    5.7366 C.3       1 <0>        -0.1393
     14 N1         -1.3705   -0.5152    0.0118 N.am      1 <0>        -0.7380
     15 C13        -2.0508   -0.6427   -1.1446 C.2       1 <0>         0.7134
     16 O1         -1.5587   -0.2525   -2.1857 O.2       1 <0>        -0.5821
     17 N2         -3.2768   -1.2027   -1.1470 N.am      1 <0>        -0.6324
     18 C14        -3.9430   -1.5726    0.1118 C.3       1 <0>         0.0737
     19 C15        -5.3575   -0.9819    0.1019 C.3       1 <0>         0.0475
     20 O2         -6.0204   -1.3679   -1.1045 O.3       1 <0>        -0.3476
     21 C16        -5.4010   -0.8765   -2.2956 C.3       1 <0>         0.0584
     22 H2         -5.3421    0.2111   -2.2532 H         1 <0>         0.0916
     23 C17        -3.9911   -1.4567   -2.4082 C.3       1 <0>         0.1083
     24 C18        -6.2157   -1.2901   -3.4940 C.2       1 <0>         0.5278
     25 O3         -7.1762   -2.0171   -3.3528 O.2       1 <0>        -0.5143
     26 N3         -5.8770   -0.8522   -4.7228 N.am      1 <0>        -0.8492
     27 H3          1.0046    1.9002    0.0073 H         1 <0>         0.0688
     28 H4         -0.5466    1.8865   -0.8655 H         1 <0>         0.0669
     29 H5         -0.5267    1.8702    0.9142 H         1 <0>         0.0574
     30 H6         -0.9435   -0.2569    2.5185 H         1 <0>         0.1166
     31 H7          0.2513   -1.0793    4.5083 H         1 <0>         0.1226
     32 H8          3.7541   -1.6896    2.1530 H         1 <0>         0.1294
     33 H9          2.5568   -0.8751    0.1614 H         1 <0>         0.1248
     34 H10         2.0664   -3.9501    4.4669 H         1 <0>         0.0566
     35 H11         2.6168   -3.5318    6.1071 H         1 <0>         0.0600
     36 H12         1.0675   -2.8998    5.5001 H         1 <0>         0.0568
     37 H13         4.7522   -1.4377    3.8907 H         1 <0>         0.0593
     38 H14         4.7686   -2.6779    5.1673 H         1 <0>         0.0598
     39 H15         4.2181   -3.0962    3.5270 H         1 <0>         0.0591
     40 H16         1.8172   -0.5718    6.0105 H         1 <0>         0.0568
     41 H17         3.3665   -1.2037    6.6175 H         1 <0>         0.0599
     42 H18         3.3501    0.0365    5.3409 H         1 <0>         0.0568
     43 H19        -1.7906   -0.7597    0.8512 H         1 <0>         0.3949
     44 H20        -3.9991   -2.6582    0.1923 H         1 <0>         0.0847
     45 H21        -3.3829   -1.1699    0.9557 H         1 <0>         0.0884
     46 H22        -5.9150   -1.3577    0.9599 H         1 <0>         0.1167
     47 H23        -5.2984    0.1053    0.1530 H         1 <0>         0.0608
     48 H24        -3.4628   -0.9772   -3.2323 H         1 <0>         0.1108
     49 H25        -4.0521   -2.5304   -2.5858 H         1 <0>         0.0821
     50 H26        -5.1089   -0.2708   -4.8358 H         1 <0>         0.4042
     51 H27        -6.4014   -1.1184   -5.4942 H         1 <0>         0.4096
@<TRIPOS>BOND
     1    1    2 1
     2    1   27 1
     3    1   28 1
     4    1   29 1
     5    2    3 1
     6    2    4 1
     7    2   14 1
     8    4    9 ar
     9    4    5 ar
    10    5    6 ar
    11    5   30 1
    12    6    7 ar
    13    6   31 1
    14    7    8 ar
    15    7   10 1
    16    8    9 ar
    17    8   32 1
    18    9   33 1
    19   10   11 1
    20   10   12 1
    21   10   13 1
    22   11   34 1
    23   11   35 1
    24   11   36 1
    25   12   37 1
    26   12   38 1
    27   12   39 1
    28   13   40 1
    29   13   41 1
    30   13   42 1
    31   14   15 am
    32   14   43 1
    33   15   16 2
    34   15   17 am
    35   17   23 1
    36   17   18 1
    37   18   19 1
    38   18   44 1
    39   18   45 1
    40   19   20 1
    41   19   46 1
    42   19   47 1
    43   20   21 1
    44   21   22 1
    45   21   23 1
    46   21   24 1
    47   23   48 1
    48   23   49 1
    49   24   25 2
    50   24   26 am
    51   26   50 1
    52   26   51 1
@<TRIPOS>MOLECULE
ZINC65832957
   36    37     0     0     0
SMALL
USER_CHARGES

@<TRIPOS>ATOM
      1 C1         -0.0167    1.3801    0.0096 C.ar      1 <0>        -0.2211
      2 C2          1.1726    2.0885    0.0021 C.ar      1 <0>         0.2275
      3 C3          2.3807    1.4128   -0.0130 C.ar      1 <0>        -0.2221
      4 C4          2.3995    0.0286   -0.0206 C.ar      1 <0>         0.2656
      5 C5          1.2102   -0.6798   -0.0126 C.ar      1 <0>        -0.7873
      6 C6          0.0021   -0.0041    0.0020 C.ar      1 <0>         0.2596
      7 F1         -1.1586   -0.6954    0.0093 F         1 <0>        -0.0884
      8 S1          1.2341   -2.4416   -0.0234 S.o2      1 <0>         2.6994
      9 O1         -0.0113   -2.8614   -0.5639 O.2       1 <0>        -0.9132
     10 O2          2.4790   -2.8275   -0.5894 O.2       1 <0>        -0.9166
     11 N1          1.2570   -2.9407    1.5555 N.pl3     1 <0>        -0.9097
     12 N2          0.2101   -2.5877    2.4170 N.am      1 <0>        -0.5192
     13 C7         -0.4637   -3.5442    3.0859 C.2       1 <0>         0.7195
     14 O3         -1.3723   -3.2379    3.8336 O.2       1 <0>        -0.5655
     15 N3         -0.1304   -4.8403    2.9261 N.am      1 <0>        -0.7300
     16 C8         -0.8628   -5.8800    3.6533 C.3       1 <0>         0.1535
     17 C9         -0.2195   -6.1105    5.0363 C.3       1 <0>        -0.1363
     18 C10        -0.3385   -7.6385    5.2607 C.3       1 <0>        -0.1252
     19 C11        -0.0737   -8.2132    3.8470 C.3       1 <0>        -0.1250
     20 C12        -0.7701   -7.2169    2.8971 C.3       1 <0>        -0.1340
     21 F2          3.5785   -0.6309   -0.0363 F         1 <0>        -0.0912
     22 F3          1.1543    3.4394    0.0090 F         1 <0>        -0.1054
     23 H1         -0.9591    1.9073    0.0260 H         1 <0>         0.1714
     24 H2          3.3086    1.9654   -0.0193 H         1 <0>         0.1707
     25 H3          1.9953   -3.4774    1.8838 H         1 <0>         0.4277
     26 H4         -0.0298   -1.6549    2.5320 H         1 <0>         0.4296
     27 H5          0.5944   -5.0847    2.3297 H         1 <0>         0.3970
     28 H6         -1.9067   -5.5887    3.7701 H         1 <0>         0.0966
     29 H7          0.8273   -5.8069    5.0255 H         1 <0>         0.0697
     30 H8         -0.7671   -5.5680    5.8070 H         1 <0>         0.0732
     31 H9          0.4165   -7.9852    5.9663 H         1 <0>         0.0697
     32 H10        -1.3391   -7.9018    5.6036 H         1 <0>         0.0710
     33 H11         0.9966   -8.2491    3.6441 H         1 <0>         0.0673
     34 H12        -0.5149   -9.2051    3.7496 H         1 <0>         0.0702
     35 H13        -1.7690   -7.5749    2.6476 H         1 <0>         0.0791
     36 H14        -0.1802   -7.0921    1.9891 H         1 <0>         0.0719
@<TRIPOS>BOND
     1    1    6 ar
     2    1    2 ar
     3    1   23 1
     4    2    3 ar
     5    2   22 1
     6    3    4 ar
     7    3   24 1
     8    4    5 ar
     9    4   21 1
    10    5    6 ar
    11    5    8 1
    12    6    7 1
    13    8    9 2
    14    8   10 2
    15    8   11 1
    16   11   12 1
    17   11   25 1
    18   12   13 am
    19   12   26 1
    20   13   14 2
    21   13   15 am
    22   15   16 1
    23   15   27 1
    24   16   20 1
    25   16   17 1
    26   16   28 1
    27   17   18 1
    28   17   29 1
    29   17   30 1
    30   18   19 1
    31   18   31 1
    32   18   32 1
    33   19   20 1
    34   19   33 1
    35   19   34 1
    36   20   35 1
    37   20   36 1
@<TRIPOS>MOLECULE
ZINC03600646
   46    49     0     0     0
SMALL
USER_CHARGES
N-(2-cyanophenyl)-2-(dioxoBLAHyl)-acetamide
@<TRIPOS>ATOM
      1 C1         -4.9240    0.7847    1.1615 C.ar      1 <0>        -0.0990
      2 C2         -4.2913    1.1032    2.3489 C.ar      1 <0>        -0.1199
      3 C3         -2.9362    1.3607    2.3559 C.ar      1 <0>        -0.0952
      4 C4         -2.2005    1.3033    1.1793 C.ar      1 <0>        -0.0970
      5 C5         -2.8308    0.9837   -0.0035 C.ar      1 <0>        -0.0493
      6 C6         -4.1952    0.7259   -0.0081 C.ar      1 <0>        -0.1252
      7 C7         -2.0937    0.8982   -1.3141 C.3       1 <0>        -0.0880
      8 C8         -0.7543    1.6270   -1.2286 C.3       1 <0>        -0.1151
      9 C9         -0.0004    1.1136    0.0046 C.3       1 <0>        -0.1183
     10 C10        -0.7282    1.5995    1.2517 C.3       1 <0>         0.1753
     11 C11        -0.1281    0.9679    2.4881 C.2       1 <0>         0.5398
     12 O1         -0.0826   -0.2127    2.7602 O.2       1 <0>        -0.4478
     13 N1          0.3456    1.9939    3.2242 N.am      1 <0>        -0.5655
     14 C12         0.1281    3.1714    2.6264 C.2       1 <0>         0.7096
     15 O2          0.4657    4.2404    3.0960 O.2       1 <0>        -0.5346
     16 N2         -0.5067    3.0390    1.4464 N.am      1 <0>        -0.7093
     17 C13         1.0158    1.8386    4.5177 C.3       1 <0>         0.0994
     18 C14        -0.0075    1.8892    5.6229 C.2       1 <0>         0.5068
     19 O3         -1.1810    2.0401    5.3563 O.2       1 <0>        -0.4962
     20 N3          0.3814    1.7667    6.9075 N.am      1 <0>        -0.6666
     21 C15        -0.5466    1.9283    7.9351 C.ar      1 <0>         0.1991
     22 C16        -1.6888    2.6895    7.7300 C.ar      1 <0>        -0.1331
     23 C17        -2.6067    2.8483    8.7490 C.ar      1 <0>        -0.0644
     24 C18        -2.3966    2.2514    9.9814 C.ar      1 <0>        -0.1369
     25 C19        -1.2682    1.4915   10.2032 C.ar      1 <0>        -0.0476
     26 C20        -0.3332    1.3174    9.1800 C.ar      1 <0>        -0.0638
     27 C21         0.8385    0.5248    9.4021 C.1       1 <0>         0.2477
     28 N4          1.7680   -0.1040    9.5782 N.1       1 <0>        -0.4075
     29 H1         -5.9849    0.5826    1.1499 H         1 <0>         0.1274
     30 H2         -4.8564    1.1506    3.2680 H         1 <0>         0.1264
     31 H3         -2.4433    1.6095    3.2840 H         1 <0>         0.1267
     32 H4         -4.6900    0.4774   -0.9354 H         1 <0>         0.1274
     33 H5         -2.7003    1.3526   -2.0975 H         1 <0>         0.0836
     34 H6         -1.9175   -0.1493   -1.5586 H         1 <0>         0.0853
     35 H7         -0.9259    2.6991   -1.1330 H         1 <0>         0.0689
     36 H8         -0.1676    1.4285   -2.1255 H         1 <0>         0.0836
     37 H9          0.0218    0.0239   -0.0061 H         1 <0>         0.0947
     38 H10         1.0183    1.5014   -0.0002 H         1 <0>         0.0842
     39 H11        -0.7662    3.7531    0.8433 H         1 <0>         0.4421
     40 H12         1.5338    0.8799    4.5457 H         1 <0>         0.1329
     41 H13         1.7365    2.6451    4.6526 H         1 <0>         0.1383
     42 H14         1.3071    1.5662    7.1169 H         1 <0>         0.4155
     43 H15        -1.8597    3.1584    6.7722 H         1 <0>         0.1547
     44 H16        -3.4942    3.4413    8.5843 H         1 <0>         0.1359
     45 H17        -3.1206    2.3817   10.7720 H         1 <0>         0.1369
     46 H18        -1.1092    1.0279   11.1656 H         1 <0>         0.1383
@<TRIPOS>BOND
     1    1    6 ar
     2    1    2 ar
     3    1   29 1
     4    2    3 ar
     5    2   30 1
     6    3    4 ar
     7    3   31 1
     8    4   10 1
     9    4    5 ar
    10    5    6 ar
    11    5    7 1
    12    6   32 1
    13    7    8 1
    14    7   33 1
    15    7   34 1
    16    8    9 1
    17    8   35 1
    18    8   36 1
    19    9   10 1
    20    9   37 1
    21    9   38 1
    22   10   16 1
    23   10   11 1
    24   11   12 2
    25   11   13 am
    26   13   14 am
    27   13   17 1
    28   14   15 2
    29   14   16 am
    30   16   39 1
    31   17   18 1
    32   17   40 1
    33   17   41 1
    34   18   19 2
    35   18   20 am
    36   20   21 1
    37   20   42 1
    38   21   26 ar
    39   21   22 ar
    40   22   23 ar
    41   22   43 1
    42   23   24 ar
    43   23   44 1
    44   24   25 ar
    45   24   45 1
    46   25   26 ar
    47   25   46 1
    48   26   27 1
    49   27   28 3
@<TRIPOS>MOLECULE
ZINC01803229
   44    46     0     0     0
SMALL
USER_CHARGES
ethyl (8S,8aS)-6-amino-5,7,7-tricyano-8-(3-thienyl)-1,3,8,8a-tetrahydroisoquinoline-2-carboxylate
@<TRIPOS>ATOM
      1 C1         -1.1817   -2.8860   -2.7635 C.3       1 <0>        -0.1563
      2 C2         -1.5151   -1.4236   -3.0653 C.3       1 <0>         0.0809
      3 O1         -0.9943   -0.5796   -2.0048 O.3       1 <0>        -0.3683
      4 C3         -1.2044    0.7453   -2.1191 C.2       1 <0>         0.6561
      5 O2         -1.8065    1.1844   -3.0788 O.2       1 <0>        -0.5661
      6 N1         -0.7468    1.5847   -1.1690 N.am      1 <0>        -0.5946
      7 C4         -0.0127    1.0858    0.0080 C.3       1 <0>         0.1412
      8 C5         -0.7403    1.5829    1.2312 C.2       1 <0>        -0.1597
      9 C6         -1.4607    2.6878    1.1973 C.2       1 <0>        -0.0358
     10 C7         -1.5962    3.5752   -0.0038 C.3       1 <0>        -0.0571
     11 H1         -1.0171    4.4859    0.2089 H         1 <0>         0.1011
     12 C8         -0.9578    3.0331   -1.2626 C.3       1 <0>         0.1296
     13 C9         -3.0797    3.8887   -0.2067 C.3       1 <0>        -0.0016
     14 H2         -3.6525    2.9574   -0.3274 H         1 <0>         0.1255
     15 C10        -3.5904    4.6700    1.0045 C.3       1 <0>         0.2097
     16 C11        -3.2324    3.9902    2.2915 C.2       1 <0>         0.2597
     17 C12        -2.2384    3.0744    2.4055 C.2       1 <0>        -0.1477
     18 C13        -1.9402    2.4854    3.6763 C.1       1 <0>         0.2657
     19 N2         -1.7037    2.0182    4.6843 N.1       1 <0>        -0.4275
     20 N3         -3.9465    4.3110    3.4117 N.pl3     1 <0>        -0.8608
     21 C14        -2.9978    6.0174    0.9918 C.1       1 <0>         0.2100
     22 N4         -2.5404    7.0572    0.9820 N.1       1 <0>        -0.3580
     23 C15        -5.0548    4.7904    0.9159 C.1       1 <0>         0.1954
     24 N5         -6.1850    4.8833    0.8476 N.1       1 <0>        -0.3495
     25 C16        -3.2546    4.7181   -1.4527 C.2       1 <0>        -0.1355
     26 C17        -4.0257    4.2539   -2.5018 C.2       1 <0>        -0.1426
     27 C18        -4.1671    5.0273   -3.6061 C.2       1 <0>        -0.1601
     28 S1         -3.1811    6.4550   -3.1857 S.3       1 <0>         0.0633
     29 C19        -2.6535    5.9279   -1.5637 C.2       1 <0>        -0.1856
     30 H3         -1.5763   -3.5254   -3.5670 H         1 <0>         0.0836
     31 H4         -1.6389   -3.1762   -1.8060 H         1 <0>         0.0677
     32 H5         -0.0903   -3.0078   -2.7006 H         1 <0>         0.0677
     33 H6         -1.0579   -1.1334   -4.0228 H         1 <0>         0.0717
     34 H7         -2.6065   -1.3018   -3.1283 H         1 <0>         0.0716
     35 H8          0.0061   -0.0139   -0.0107 H         1 <0>         0.1080
     36 H9          1.0176    1.4705   -0.0123 H         1 <0>         0.0901
     37 H10        -0.6622    1.0057    2.1643 H         1 <0>         0.1266
     38 H11         0.0095    3.5358   -1.4099 H         1 <0>         0.0847
     39 H12        -1.6187    3.2531   -2.1139 H         1 <0>         0.1144
     40 H13        -3.7088    3.8300    4.3720 H         1 <0>         0.4375
     41 H14        -4.7590    5.0502    3.3531 H         1 <0>         0.4268
     42 H15        -4.5116    3.2913   -2.4410 H         1 <0>         0.1394
     43 H16        -4.7267    4.8289   -4.5082 H         1 <0>         0.1894
     44 H17        -2.0200    6.4402   -0.8547 H         1 <0>         0.1896
@<TRIPOS>BOND
     1    1    2 1
     2    1   30 1
     3    1   31 1
     4    1   32 1
     5    2    3 1
     6    2   33 1
     7    2   34 1
     8    3    4 1
     9    4    5 2
    10    4    6 am
    11    6   12 1
    12    6    7 1
    13    7    8 1
    14    7   35 1
    15    7   36 1
    16    8    9 2
    17    8   37 1
    18    9   17 1
    19    9   10 1
    20   10   11 1
    21   10   12 1
    22   10   13 1
    23   12   38 1
    24   12   39 1
    25   13   14 1
    26   13   15 1
    27   13   25 1
    28   15   16 1
    29   15   21 1
    30   15   23 1
    31   16   17 2
    32   16   20 1
    33   17   18 1
    34   18   19 3
    35   20   40 1
    36   20   41 1
    37   21   22 3
    38   23   24 3
    39   25   29 2
    40   25   26 1
    41   26   27 2
    42   26   42 1
    43   27   28 1
    44   27   43 1
    45   28   29 1
    46   29   44 1
@<TRIPOS>MOLECULE
ZINC40805298
   42    44     0     0     0
SMALL
USER_CHARGES

@<TRIPOS>ATOM
      1 C1         -0.0184    1.5028    0.0103 C.3       1 <0>        -0.1171
      2 C2          0.0021   -0.0041    0.0020 C.ar      1 <0>        -0.0649
      3 C3          0.0058   -0.6869   -1.2004 C.ar      1 <0>        -0.1124
      4 C4          0.0186   -2.0697   -1.2161 C.ar      1 <0>        -0.0945
      5 C5          0.0310   -2.7733   -0.0238 C.ar      1 <0>         0.0501
      6 C6          0.0383   -2.0854    1.1876 C.ar      1 <0>         0.1065
      7 C7          0.0229   -0.6998    1.1967 C.ar      1 <0>        -0.1249
      8 N1          0.0857   -2.8048    2.3895 N.am      1 <0>        -0.6539
      9 C8          0.3418   -4.1293    2.3547 C.2       1 <0>         0.5191
     10 O1          0.2787   -4.7885    3.3709 O.2       1 <0>        -0.4751
     11 C9          0.7062   -4.7866    1.0476 C.3       1 <0>         0.1007
     12 O2          0.0253   -4.1334   -0.0260 O.3       1 <0>        -0.2875
     13 C10         0.2976   -6.2605    1.0876 C.3       1 <0>        -0.1341
     14 C11         2.1944   -4.6853    0.8330 C.2       1 <0>         0.4999
     15 O3          2.9377   -4.5687    1.7843 O.2       1 <0>        -0.4383
     16 N2          2.6993   -4.7243   -0.4160 N.am      1 <0>        -0.6007
     17 C12         4.0727   -4.6308   -0.6140 C.2       1 <0>         0.2276
     18 N3          5.0350   -4.5068    0.2788 N.2       1 <0>        -0.2978
     19 N4          6.2511   -4.4330   -0.0562 N.2       1 <0>        -0.2293
     20 C13         6.5682   -4.4813   -1.3346 C.2       1 <0>         0.0430
     21 S1          4.9428   -4.6538   -2.0579 S.3       1 <0>         0.0813
     22 C14         7.9195   -4.4159   -1.9984 C.3       1 <0>         0.0039
     23 C15         8.5967   -3.0898   -1.6469 C.3       1 <0>        -0.1444
     24 C16         8.7860   -5.5771   -1.5068 C.3       1 <0>        -0.1446
     25 H1          1.0042    1.8801    0.0026 H         1 <0>         0.0758
     26 H2         -0.5455    1.8639   -0.8728 H         1 <0>         0.0731
     27 H3         -0.5286    1.8543    0.9071 H         1 <0>         0.0705
     28 H4         -0.0018   -0.1383   -2.1307 H         1 <0>         0.1385
     29 H5          0.0185   -2.5999   -2.1570 H         1 <0>         0.1432
     30 H6          0.0229   -0.1646    2.1348 H         1 <0>         0.1371
     31 H7         -0.0634   -2.3558    3.2364 H         1 <0>         0.4230
     32 H8         -0.7784   -6.3352    1.2447 H         1 <0>         0.0944
     33 H9          0.5608   -6.7363    0.1429 H         1 <0>         0.0882
     34 H10         0.8195   -6.7602    1.9038 H         1 <0>         0.1034
     35 H11         2.1049   -4.8176   -1.1768 H         1 <0>         0.4339
     36 H12         7.7971   -4.4861   -3.0793 H         1 <0>         0.1002
     37 H13         8.7191   -3.0196   -0.5661 H         1 <0>         0.0690
     38 H14         9.5741   -3.0424   -2.1270 H         1 <0>         0.0744
     39 H15         7.9795   -2.2625   -1.9971 H         1 <0>         0.0593
     40 H16         8.9083   -5.5069   -0.4260 H         1 <0>         0.0691
     41 H17         8.3035   -6.5219   -1.7573 H         1 <0>         0.0596
     42 H18         9.7634   -5.5298   -1.9870 H         1 <0>         0.0744
@<TRIPOS>BOND
     1    1    2 1
     2    1   25 1
     3    1   26 1
     4    1   27 1
     5    2    7 ar
     6    2    3 ar
     7    3    4 ar
     8    3   28 1
     9    4    5 ar
    10    4   29 1
    11    5   12 1
    12    5    6 ar
    13    6    7 ar
    14    6    8 1
    15    7   30 1
    16    8    9 am
    17    8   31 1
    18    9   10 2
    19    9   11 1
    20   11   12 1
    21   11   13 1
    22   11   14 1
    23   13   32 1
    24   13   33 1
    25   13   34 1
    26   14   15 2
    27   14   16 am
    28   16   17 1
    29   16   35 1
    30   17   21 1
    31   17   18 2
    32   18   19 1
    33   19   20 2
    34   20   21 1
    35   20   22 1
    36   22   23 1
    37   22   24 1
    38   22   36 1
    39   23   37 1
    40   23   38 1
    41   23   39 1
    42   24   40 1
    43   24   41 1
    44   24   42 1
@<TRIPOS>MOLECULE
ZINC07090248
   46    49     0     0     0
SMALL
USER_CHARGES

@<TRIPOS>ATOM
      1 C1         -0.0168    1.3903    0.0097 C.2       1 <0>        -0.1404
      2 C2          1.1439    2.0846    0.0023 C.2       1 <0>        -0.1693
      3 S1          2.3571    0.7732   -0.0172 S.3       1 <0>         0.0685
      4 C3          1.2302   -0.5945   -0.0133 C.2       1 <0>        -0.1230
      5 C4          0.0021   -0.0041    0.0020 C.2       1 <0>        -0.1345
      6 C5         -1.2505   -0.8638    0.0103 C.3       1 <0>         0.1920
      7 C6         -0.9101   -2.2851    0.4334 C.3       1 <0>        -0.1170
      8 C7          0.2554   -2.8196   -0.4057 C.3       1 <0>        -0.1093
      9 C8          1.5330   -2.0570   -0.0251 C.3       1 <0>        -0.0482
     10 C9         -2.2843   -0.2574    0.9272 C.2       1 <0>         0.5442
     11 O1         -2.1904   -0.0753    2.1220 O.2       1 <0>        -0.4494
     12 N1         -3.3359    0.0391    0.1344 N.am      1 <0>        -0.5643
     13 C10        -3.1019   -0.2962   -1.1406 C.2       1 <0>         0.7093
     14 O2         -3.9000   -0.1268   -2.0414 O.2       1 <0>        -0.5348
     15 N2         -1.8821   -0.8425   -1.3126 N.am      1 <0>        -0.7094
     16 C11        -4.5789    0.6513    0.6101 C.3       1 <0>         0.1002
     17 C12        -4.4611    2.1518    0.5342 C.2       1 <0>         0.5017
     18 O3         -3.4393    2.6597    0.1232 O.2       1 <0>        -0.5094
     19 N3         -5.4911    2.9292    0.9231 N.am      1 <0>        -0.7160
     20 C13        -5.3765    4.3878    0.8493 C.3       1 <0>         0.2762
     21 C14        -4.2503    4.8773    1.7831 C.3       1 <0>        -0.1181
     22 C15        -4.7886    6.2096    2.3614 C.3       1 <0>        -0.1281
     23 C16        -6.2946    5.9101    2.5649 C.3       1 <0>        -0.1222
     24 C17        -6.6763    5.0445    1.3464 C.3       1 <0>        -0.1210
     25 C18        -5.1000    4.8021   -0.5359 C.1       1 <0>         0.2007
     26 N4         -4.8866    5.1218   -1.6049 N.1       1 <0>        -0.4035
     27 H1         -0.9598    1.9166    0.0260 H         1 <0>         0.1358
     28 H2          1.2974    3.1536    0.0067 H         1 <0>         0.1887
     29 H3         -0.6299   -2.2914    1.4867 H         1 <0>         0.0951
     30 H4         -1.7817   -2.9236    0.2894 H         1 <0>         0.0853
     31 H5          0.3915   -3.8825   -0.2063 H         1 <0>         0.0894
     32 H6          0.0424   -2.6692   -1.4641 H         1 <0>         0.0713
     33 H7          2.3142   -2.2630   -0.7567 H         1 <0>         0.0909
     34 H8          1.8639   -2.3701    0.9652 H         1 <0>         0.0941
     35 H9         -1.4985   -1.1586   -2.1456 H         1 <0>         0.4414
     36 H10        -5.4091    0.3200   -0.0138 H         1 <0>         0.1322
     37 H11        -4.7589    0.3528    1.6429 H         1 <0>         0.1318
     38 H12        -6.3082    2.5229    1.2518 H         1 <0>         0.4124
     39 H13        -4.0773    4.1567    2.5824 H         1 <0>         0.0899
     40 H14        -3.3341    5.0492    1.2183 H         1 <0>         0.0821
     41 H15        -4.3086    6.4398    3.3125 H         1 <0>         0.0807
     42 H16        -4.6494    7.0237    1.6501 H         1 <0>         0.0721
     43 H17        -6.4518    5.3563    3.4905 H         1 <0>         0.0775
     44 H18        -6.8703    6.8357    2.5706 H         1 <0>         0.0781
     45 H19        -7.1019    5.6706    0.5622 H         1 <0>         0.0855
     46 H20        -7.3923    4.2779    1.6425 H         1 <0>         0.0907
@<TRIPOS>BOND
     1    1    5 1
     2    1    2 2
     3    1   27 1
     4    2    3 1
     5    2   28 1
     6    3    4 1
     7    4    9 1
     8    4    5 2
     9    5    6 1
    10    6   15 1
    11    6    7 1
    12    6   10 1
    13    7    8 1
    14    7   29 1
    15    7   30 1
    16    8    9 1
    17    8   31 1
    18    8   32 1
    19    9   33 1
    20    9   34 1
    21   10   11 2
    22   10   12 am
    23   12   13 am
    24   12   16 1
    25   13   14 2
    26   13   15 am
    27   15   35 1
    28   16   17 1
    29   16   36 1
    30   16   37 1
    31   17   18 2
    32   17   19 am
    33   19   20 1
    34   19   38 1
    35   20   24 1
    36   20   21 1
    37   20   25 1
    38   21   22 1
    39   21   39 1
    40   21   40 1
    41   22   23 1
    42   22   41 1
    43   22   42 1
    44   23   24 1
    45   23   43 1
    46   23   44 1
    47   24   45 1
    48   24   46 1
    49   25   26 3
@<TRIPOS>MOLECULE
ZINC32094006
   39    42     0     0     0
SMALL
USER_CHARGES

@<TRIPOS>ATOM
      1 C1         -0.0184    1.5028    0.0103 C.3       1 <0>        -0.0795
      2 C2          0.0021   -0.0041    0.0020 C.2       1 <0>         0.1394
      3 C3          0.0079   -0.8059   -1.1240 C.2       1 <0>        -0.2830
      4 C4          0.0320   -2.1293   -0.7060 C.2       1 <0>         0.3276
      5 N1          0.0339   -2.1193    0.6480 N.pl3     1 <0>        -0.3048
      6 N2          0.0231   -0.7776    1.0636 N.2       1 <0>        -0.2838
      7 C5          0.0485   -3.2411    1.4813 C.ar      1 <0>         0.3163
      8 C6          0.5535   -3.1438    2.7766 C.ar      1 <0>        -0.0954
      9 C7          0.5456   -4.2846    3.5639 C.ar      1 <0>        -0.0837
     10 C8          0.0352   -5.4534    3.0137 C.ar      1 <0>         0.0987
     11 N3         -0.4230   -5.4539    1.7763 N.ar      1 <0>        -0.1976
     12 N4         -0.4223   -4.3989    1.0453 N.ar      1 <0>        -0.2079
     13 Cl1         0.0007   -6.9127    3.9533 Cl        1 <0>         0.0070
     14 N5          0.0571   -3.1597   -1.5984 N.2       1 <0>        -0.5480
     15 C9          0.3444   -2.9126   -2.8413 C.2       1 <0>         0.4120
     16 C10         0.7164   -1.5521   -3.3536 C.3       1 <0>        -0.1073
     17 C11        -0.0115   -0.4413   -2.5871 C.3       1 <0>         0.0451
     18 H1         -1.0416   -0.3655   -2.9354 H         1 <0>         0.0968
     19 C12         0.6973    0.8721   -2.7958 C.ar      1 <0>        -0.0536
     20 C13         2.0291    1.0015   -2.4466 C.ar      1 <0>        -0.1158
     21 C14         2.6822    2.2051   -2.6367 C.ar      1 <0>        -0.0983
     22 C15         2.0052    3.2821   -3.1759 C.ar      1 <0>        -0.1428
     23 C16         0.6693    3.1548   -3.5270 C.ar      1 <0>         0.1101
     24 C17         0.0178    1.9440   -3.3408 C.ar      1 <0>        -0.1365
     25 O1          0.0013    4.2127   -4.0576 O.3       1 <0>        -0.4989
     26 O2          0.3065   -3.9356   -3.7195 O.3       1 <0>        -0.4524
     27 H2          1.0042    1.8801    0.0026 H         1 <0>         0.0845
     28 H3         -0.5455    1.8639   -0.8728 H         1 <0>         0.0853
     29 H4         -0.5286    1.8543    0.9071 H         1 <0>         0.0775
     30 H5          0.9394   -2.2088    3.1551 H         1 <0>         0.1715
     31 H6          0.9252   -4.2654    4.5748 H         1 <0>         0.1720
     32 H7          1.7921   -1.4132   -3.2455 H         1 <0>         0.1119
     33 H8          0.4548   -1.4858   -4.4097 H         1 <0>         0.1144
     34 H9          2.5598    0.1610   -2.0243 H         1 <0>         0.1215
     35 H10         3.7223    2.3036   -2.3632 H         1 <0>         0.1281
     36 H11         2.5157    4.2223   -3.3236 H         1 <0>         0.1291
     37 H12        -1.0210    1.8411   -3.6178 H         1 <0>         0.1313
     38 H13         0.0456    4.2621   -5.0223 H         1 <0>         0.3925
     39 H14         0.0605   -4.7836   -3.3251 H         1 <0>         0.4166
@<TRIPOS>BOND
     1    1    2 1
     2    1   27 1
     3    1   28 1
     4    1   29 1
     5    2    6 2
     6    2    3 1
     7    3   17 1
     8    3    4 2
     9    4    5 1
    10    4   14 1
    11    5    6 1
    12    5    7 1
    13    7   12 ar
    14    7    8 ar
    15    8    9 ar
    16    8   30 1
    17    9   10 ar
    18    9   31 1
    19   10   11 ar
    20   10   13 1
    21   11   12 ar
    22   14   15 2
    23   15   16 1
    24   15   26 1
    25   16   17 1
    26   16   32 1
    27   16   33 1
    28   17   18 1
    29   17   19 1
    30   19   24 ar
    31   19   20 ar
    32   20   21 ar
    33   20   34 1
    34   21   22 ar
    35   21   35 1
    36   22   23 ar
    37   22   36 1
    38   23   24 ar
    39   23   25 1
    40   24   37 1
    41   25   38 1
    42   26   39 1
@<TRIPOS>MOLECULE
ZINC67028334
   37    39     0     0     0
SMALL
USER_CHARGES

@<TRIPOS>ATOM
      1 C1          0.7341    1.1466    0.7018 C.3       1 <0>        -0.1276
      2 C2          0.4630   -0.3107    0.4300 C.2       1 <0>         0.2551
      3 C3         -0.8051   -0.7706    0.4793 C.2       1 <0>        -0.2904
      4 C4         -1.0331   -2.2422    0.1996 C.3       1 <0>         0.2595
      5 H1         -1.7196   -2.3216   -0.6434 H         1 <0>         0.1110
      6 N1          0.1561   -3.0555   -0.1052 N.pl3     1 <0>        -0.6466
      7 C5          1.3606   -2.4510   -0.1172 C.2       1 <0>         0.5528
      8 S1          2.7519   -3.3839   -0.4706 S.2       1 <0>        -0.5762
      9 N2          1.5038   -1.1433    0.1324 N.pl3     1 <0>        -0.4918
     10 C6          2.8534   -0.5751    0.0898 C.3       1 <0>         0.0440
     11 C7         -1.7107   -2.8444    1.4035 C.2       1 <0>        -0.0317
     12 C8         -2.8823   -3.5255    1.3163 C.2       1 <0>        -0.2866
     13 S2         -3.1566   -3.9540    2.9169 S.3       1 <0>         0.4369
     14 N3         -1.8476   -3.2897    3.5973 N.2       1 <0>        -0.2336
     15 N4         -1.2080   -2.7538    2.6167 N.2       1 <0>        -0.2219
     16 C9         -1.8858    0.0931    0.7827 C.2       1 <0>         0.5952
     17 O1         -1.6790    1.2724    1.0045 O.2       1 <0>        -0.5157
     18 N5         -3.1431   -0.3904    0.8258 N.am      1 <0>        -0.6683
     19 C10        -4.2171    0.4738    1.0660 C.ar      1 <0>         0.1166
     20 C11        -4.0484    1.6078    1.8557 C.ar      1 <0>        -0.0692
     21 C12        -5.1414    2.4335    2.0644 C.ar      1 <0>        -0.1442
     22 C13        -6.3542    2.1078    1.4869 C.ar      1 <0>         0.1020
     23 N6         -6.4824    1.0260    0.7434 N.ar      1 <0>        -0.4548
     24 C14        -5.4670    0.2159    0.5149 C.ar      1 <0>         0.1451
     25 Cl1        -5.6952   -1.1895   -0.4785 Cl        1 <0>        -0.0324
     26 H2          1.8095    1.3241    0.6920 H         1 <0>         0.0807
     27 H3          0.2584    1.7543   -0.0679 H         1 <0>         0.1088
     28 H4          0.3304    1.4153    1.6780 H         1 <0>         0.1127
     29 H5          0.0745   -4.0038   -0.2926 H         1 <0>         0.4468
     30 H6          3.2685   -0.5487    1.0973 H         1 <0>         0.0882
     31 H7          3.4871   -1.1911   -0.5482 H         1 <0>         0.1293
     32 H8          2.8088    0.4374   -0.3115 H         1 <0>         0.0961
     33 H9         -3.4825   -3.7367    0.4436 H         1 <0>         0.2150
     34 H10        -3.3036   -1.3374    0.6904 H         1 <0>         0.4074
     35 H11        -3.0891    1.8382    2.2952 H         1 <0>         0.1658
     36 H12        -5.0468    3.3214    2.6719 H         1 <0>         0.1506
     37 H13        -7.2090    2.7481    1.6471 H         1 <0>         0.1711
@<TRIPOS>BOND
     1    1    2 1
     2    1   26 1
     3    1   27 1
     4    1   28 1
     5    2    9 1
     6    2    3 2
     7    3    4 1
     8    3   16 1
     9    4    5 1
    10    4    6 1
    11    4   11 1
    12    6    7 1
    13    6   29 1
    14    7    8 2
    15    7    9 1
    16    9   10 1
    17   10   30 1
    18   10   31 1
    19   10   32 1
    20   11   15 1
    21   11   12 2
    22   12   13 1
    23   12   33 1
    24   13   14 1
    25   14   15 2
    26   16   17 2
    27   16   18 am
    28   18   19 1
    29   18   34 1
    30   19   24 ar
    31   19   20 ar
    32   20   21 ar
    33   20   35 1
    34   21   22 ar
    35   21   36 1
    36   22   23 ar
    37   22   37 1
    38   23   24 ar
    39   24   25 1
@<TRIPOS>MOLECULE
ZINC12897462
   40    42     0     0     0
SMALL
USER_CHARGES

@<TRIPOS>ATOM
      1 C1         -0.0187    1.5258    0.0104 C.3       1 <0>        -0.1361
      2 C2          0.0021   -0.0041    0.0020 C.3       1 <0>        -0.0969
      3 C3         -1.4117   -0.5257    0.0127 C.2       1 <0>         0.5737
      4 O1         -1.9272   -0.9010   -1.0184 O.2       1 <0>        -0.4803
      5 N1         -2.1031   -0.5750    1.1686 N.am      1 <0>        -0.5775
      6 C4         -3.4816   -1.0653    1.3167 C.3       1 <0>         0.0812
      7 C5         -3.7723   -0.9008    2.8211 C.3       1 <0>         0.0890
      8 N2         -2.5268   -0.3353    3.3609 N.am      1 <0>        -0.7243
      9 C6         -1.6418   -0.1905    2.3659 C.2       1 <0>         0.6968
     10 O2         -0.5228    0.2533    2.5336 O.2       1 <0>        -0.5395
     11 S1          0.8511   -0.5891   -1.4904 S.3       1 <0>         0.0571
     12 C7          2.5089   -0.0285   -1.2851 C.2       1 <0>         0.2537
     13 N3          2.9749    0.6561   -0.2618 N.2       1 <0>        -0.5318
     14 H1          3.4921   -0.7060   -2.9912 H         1 <0>         0.4450
     15 C8          4.2717    0.9081   -0.4428 C.2       1 <0>         0.2463
     16 N4          4.6538    0.3910   -1.5795 N.2       1 <0>        -0.2985
     17 N5          3.5293   -0.2298   -2.1470 N.pl3     1 <0>        -0.4618
     18 C9          5.1554    1.6689    0.5119 C.3       1 <0>        -0.0009
     19 C10         5.7940    2.8754   -0.2065 C.3       1 <0>        -0.1152
     20 C11         7.2224    2.9583    0.3867 C.3       1 <0>        -0.1234
     21 C12         7.6177    1.4681    0.5354 C.3       1 <0>        -0.1230
     22 C13         6.3149    0.7740    0.9836 C.3       1 <0>        -0.1137
     23 H2          1.0039    1.9031    0.0027 H         1 <0>         0.0922
     24 H3         -0.5459    1.8868   -0.8726 H         1 <0>         0.0653
     25 H4         -0.5289    1.8773    0.9072 H         1 <0>         0.0776
     26 H5          0.5293   -0.3651    0.8851 H         1 <0>         0.1511
     27 H6         -4.1686   -0.4596    0.7258 H         1 <0>         0.1029
     28 H7         -3.5479   -2.1138    1.0266 H         1 <0>         0.1026
     29 H8         -4.6037   -0.2135    2.9772 H         1 <0>         0.0958
     30 H9         -3.9830   -1.8678    3.2780 H         1 <0>         0.0954
     31 H10        -2.3696   -0.1073    4.2905 H         1 <0>         0.4389
     32 H11         4.5736    2.0087    1.3687 H         1 <0>         0.1010
     33 H12         5.8369    2.7004   -1.2815 H         1 <0>         0.0728
     34 H13         5.2373    3.7871    0.0106 H         1 <0>         0.0708
     35 H14         7.8967    3.4701   -0.2999 H         1 <0>         0.0696
     36 H15         7.2093    3.4532    1.3577 H         1 <0>         0.0701
     37 H16         7.9551    1.0658   -0.4198 H         1 <0>         0.0679
     38 H17         8.3919    1.3527    1.2940 H         1 <0>         0.0677
     39 H18         6.2963    0.6803    2.0694 H         1 <0>         0.0722
     40 H19         6.2385   -0.2104    0.5221 H         1 <0>         0.0661
@<TRIPOS>BOND
     1    1    2 1
     2    1   23 1
     3    1   24 1
     4    1   25 1
     5    2    3 1
     6    2   26 1
     7    2   11 1
     8    3    4 2
     9    3    5 am
    10    5    9 am
    11    5    6 1
    12    6    7 1
    13    6   27 1
    14    6   28 1
    15    7    8 1
    16    7   29 1
    17    7   30 1
    18    8    9 am
    19    8   31 1
    20    9   10 2
    21   11   12 1
    22   12   13 2
    23   12   17 1
    24   13   15 1
    25   14   17 1
    26   15   18 1
    27   15   16 2
    28   16   17 1
    29   18   22 1
    30   18   19 1
    31   18   32 1
    32   19   20 1
    33   19   33 1
    34   19   34 1
    35   20   21 1
    36   20   35 1
    37   20   36 1
    38   21   22 1
    39   21   37 1
    40   21   38 1
    41   22   39 1
    42   22   40 1
@<TRIPOS>MOLECULE
ZINC41545870
   41    43     0     0     0
SMALL
USER_CHARGES

@<TRIPOS>ATOM
      1 C1         -0.0187    1.5258    0.0104 C.3       1 <0>        -0.1562
      2 C2          0.0021   -0.0041    0.0020 C.3       1 <0>         0.2242
      3 H1         -1.0205   -0.3814    0.0098 H         1 <0>         0.0945
      4 C3          0.7309   -0.5033    1.2229 C.2       1 <0>        -0.2530
      5 C4          2.1189   -0.5688    1.3833 C.2       1 <0>         0.0564
      6 N1          2.3705   -1.0543    2.5719 N.2       1 <0>        -0.2892
      7 N2          1.1488   -1.3135    3.2064 N.pl3     1 <0>        -0.3716
      8 C5          0.1583   -0.9619    2.3599 C.2       1 <0>         0.0748
      9 C6          0.9767   -1.8636    4.5532 C.3       1 <0>         0.0987
     10 N3          0.6878   -0.4765   -1.2033 N.am      1 <0>        -0.7024
     11 C7          0.0062   -0.6081   -2.3585 C.2       1 <0>         0.5075
     12 O1         -1.1748   -0.3355   -2.4003 O.2       1 <0>        -0.5150
     13 C8          0.7116   -1.0941   -3.5984 C.3       1 <0>         0.0914
     14 C9         -0.0211   -0.5984   -4.8195 C.2       1 <0>         0.5194
     15 O2         -0.8727   -1.2874   -5.3402 O.2       1 <0>        -0.4829
     16 N4          0.2742    0.6154   -5.3303 N.am      1 <0>        -0.6564
     17 C10         1.3458    1.3413   -4.7926 C.ar      1 <0>         0.0995
     18 C11         1.5359    2.6715   -5.1312 C.ar      1 <0>        -0.1243
     19 C12         2.5902    3.3775   -4.5817 C.ar      1 <0>        -0.1035
     20 C13         3.4540    2.7601   -3.6958 C.ar      1 <0>        -0.1110
     21 C14         3.2725    1.4314   -3.3578 C.ar      1 <0>        -0.1001
     22 C15         2.2225    0.7165   -3.9084 C.ar      1 <0>         0.0660
     23 O3          2.0523   -0.5990   -3.6079 O.3       1 <0>        -0.2889
     24 C16         0.7336   -2.6240   -3.6051 C.3       1 <0>        -0.1312
     25 H2          1.0039    1.9031    0.0027 H         1 <0>         0.0604
     26 H3         -0.5459    1.8868   -0.8726 H         1 <0>         0.0602
     27 H4         -0.5289    1.8773    0.9072 H         1 <0>         0.0684
     28 H5          2.8556   -0.2702    0.6522 H         1 <0>         0.1813
     29 H6         -0.9015   -1.0357    2.5542 H         1 <0>         0.1773
     30 H7          0.9336   -1.0487    5.2758 H         1 <0>         0.0776
     31 H8          0.0504   -2.4366    4.5961 H         1 <0>         0.0897
     32 H9          1.8181   -2.5149    4.7899 H         1 <0>         0.0917
     33 H10         1.6324   -0.6946   -1.1699 H         1 <0>         0.4060
     34 H11        -0.2486    0.9808   -6.0611 H         1 <0>         0.4202
     35 H12         0.8624    3.1556   -5.8229 H         1 <0>         0.1351
     36 H13         2.7397    4.4141   -4.8455 H         1 <0>         0.1345
     37 H14         4.2735    3.3174   -3.2667 H         1 <0>         0.1367
     38 H15         3.9488    0.9523   -2.6653 H         1 <0>         0.1413
     39 H16        -0.2886   -3.0021   -3.5964 H         1 <0>         0.0997
     40 H17         1.2437   -2.9761   -4.5017 H         1 <0>         0.0870
     41 H18         1.2615   -2.9836   -2.7218 H         1 <0>         0.0863
@<TRIPOS>BOND
     1    1    2 1
     2    1   25 1
     3    1   26 1
     4    1   27 1
     5    2    3 1
     6    2    4 1
     7    2   10 1
     8    4    8 2
     9    4    5 1
    10    5    6 2
    11    5   28 1
    12    6    7 1
    13    7    8 1
    14    7    9 1
    15    8   29 1
    16    9   30 1
    17    9   31 1
    18    9   32 1
    19   10   11 am
    20   10   33 1
    21   11   12 2
    22   11   13 1
    23   13   23 1
    24   13   14 1
    25   13   24 1
    26   14   15 2
    27   14   16 am
    28   16   17 1
    29   16   34 1
    30   17   22 ar
    31   17   18 ar
    32   18   19 ar
    33   18   35 1
    34   19   20 ar
    35   19   36 1
    36   20   21 ar
    37   20   37 1
    38   21   22 ar
    39   21   38 1
    40   22   23 1
    41   24   39 1
    42   24   40 1
    43   24   41 1
@<TRIPOS>MOLECULE
ZINC57292714
   43    44     0     0     0
SMALL
USER_CHARGES

@<TRIPOS>ATOM
      1 C1         -0.0225    1.8097    0.0120 C.3       1 <0>        -0.6750
      2 S1          0.0021   -0.0041    0.0020 S.o2      1 <0>         2.6111
      3 O1          0.8352   -0.4880    1.0465 O.2       1 <0>        -0.9530
      4 O2         -1.3147   -0.5105   -0.1678 O.2       1 <0>        -0.9509
      5 N1          0.7947   -0.4113   -1.3938 N.pl3     1 <0>        -0.9951
      6 C2          0.0529   -0.6009   -2.6478 C.3       1 <0>         0.1167
      7 C3          0.6771    0.2870   -3.7290 C.3       1 <0>        -0.1339
      8 C4          2.1735   -0.0168   -3.8317 C.3       1 <0>        -0.1292
      9 C5          2.8525    0.2980   -2.4969 C.3       1 <0>         0.1484
     10 H1          2.6909    1.3460   -2.2447 H         1 <0>         0.0928
     11 C6          2.2538   -0.5838   -1.4030 C.3       1 <0>         0.1150
     12 N2          4.2900    0.0374   -2.6061 N.am      1 <0>        -0.7421
     13 C7          5.1112    0.9855   -3.0994 C.2       1 <0>         0.7069
     14 O3          4.6589    2.0570   -3.4538 O.2       1 <0>        -0.5903
     15 N3          6.4336    0.7458   -3.1999 N.am      1 <0>        -0.7398
     16 C8          7.3262    1.7763   -3.7361 C.3       1 <0>         0.1302
     17 C9          8.7639    1.2530   -3.7421 C.3       1 <0>         0.0673
     18 H2          9.0364    0.9095   -2.7442 H         1 <0>         0.0882
     19 C10         9.7269    2.3728   -4.1916 C.3       1 <0>        -0.1482
     20 C11        10.7394    1.5997   -5.0800 C.3       1 <0>        -0.1565
     21 C12         9.8166    0.5285   -5.7138 C.3       1 <0>         0.0487
     22 O4          8.8846    0.1746   -4.6771 O.3       1 <0>        -0.3764
     23 H3          1.0001    2.1870    0.0043 H         1 <0>         0.1276
     24 H4         -0.5497    2.1708   -0.8711 H         1 <0>         0.1286
     25 H5         -0.5327    2.1613    0.9088 H         1 <0>         0.1296
     26 H6          0.1128   -1.6455   -2.9533 H         1 <0>         0.0781
     27 H7         -0.9900   -0.3200   -2.5015 H         1 <0>         0.0950
     28 H8          0.1981    0.0847   -4.6870 H         1 <0>         0.0821
     29 H9          0.5359    1.3351   -3.4652 H         1 <0>         0.0699
     30 H10         2.3145   -1.0708   -4.0712 H         1 <0>         0.0678
     31 H11         2.6153    0.5961   -4.6174 H         1 <0>         0.0733
     32 H12         2.6624   -0.2917   -0.4357 H         1 <0>         0.0980
     33 H13         2.4971   -1.6270   -1.6048 H         1 <0>         0.0812
     34 H14         4.6508   -0.8174   -2.3233 H         1 <0>         0.3982
     35 H15         6.7944   -0.1090   -2.9171 H         1 <0>         0.4002
     36 H16         7.0253    2.0237   -4.7541 H         1 <0>         0.0708
     37 H17         7.2669    2.6686   -3.1128 H         1 <0>         0.0770
     38 H18         9.1987    3.1285   -4.7730 H         1 <0>         0.0832
     39 H19        10.2274    2.8216   -3.3336 H         1 <0>         0.0877
     40 H20        11.1687    2.2494   -5.8428 H         1 <0>         0.0863
     41 H21        11.5199    1.1379   -4.4754 H         1 <0>         0.0804
     42 H22         9.2888    0.9439   -6.5723 H         1 <0>         0.0622
     43 H23        10.3985   -0.3435   -6.0121 H         1 <0>         0.0875
@<TRIPOS>BOND
     1    1    2 1
     2    1   23 1
     3    1   24 1
     4    1   25 1
     5    2    3 2
     6    2    4 2
     7    2    5 1
     8    5   11 1
     9    5    6 1
    10    6    7 1
    11    6   26 1
    12    6   27 1
    13    7    8 1
    14    7   28 1
    15    7   29 1
    16    8    9 1
    17    8   30 1
    18    8   31 1
    19    9   10 1
    20    9   11 1
    21    9   12 1
    22   11   32 1
    23   11   33 1
    24   12   13 am
    25   12   34 1
    26   13   14 2
    27   13   15 am
    28   15   16 1
    29   15   35 1
    30   16   17 1
    31   16   36 1
    32   16   37 1
    33   17   18 1
    34   17   22 1
    35   17   19 1
    36   19   20 1
    37   19   38 1
    38   19   39 1
    39   20   21 1
    40   20   40 1
    41   20   41 1
    42   21   22 1
    43   21   42 1
    44   21   43 1
@<TRIPOS>MOLECULE
ZINC63768413
   50    52     0     0     0
SMALL
USER_CHARGES

@<TRIPOS>ATOM
      1 C1         -1.4417    1.5515    0.7723 C.3       1 <0>        -0.1373
      2 C2         -1.0027    0.1308    0.4119 C.3       1 <0>         0.1435
      3 C3         -0.4026    0.1207   -0.9976 C.3       1 <0>        -0.1360
      4 C4          0.1601   -1.2704   -1.2981 C.3       1 <0>        -0.1116
      5 C5          1.2706   -1.6003   -0.2981 C.3       1 <0>        -0.1314
      6 C6          0.6895   -1.6097    1.1194 C.3       1 <0>         0.1177
      7 N1          0.0190   -0.3255    1.3641 N.am      1 <0>        -0.6037
      8 C7          0.3352    0.4198    2.4416 C.2       1 <0>         0.5386
      9 O1         -0.3059    1.4167    2.6987 O.2       1 <0>        -0.5337
     10 C8          1.4853    0.0145    3.3270 C.3       1 <0>        -0.1123
     11 C9          1.1315   -1.2807    4.0615 C.3       1 <0>        -0.1341
     12 C10         2.3159   -1.7082    4.9339 C.3       1 <0>         0.1149
     13 N2          2.6786   -0.5926    5.8186 N.am      1 <0>        -0.6037
     14 C11         2.9506    0.7223    5.2222 C.3       1 <0>         0.0963
     15 C12         1.7591    1.1226    4.3465 C.3       1 <0>        -0.1100
     16 C13         2.7598   -0.7720    7.1519 C.2       1 <0>         0.6049
     17 O2          2.4115   -1.8281    7.6461 O.2       1 <0>        -0.5215
     18 C14         3.2679    0.3057    8.0071 C.2       1 <0>        -0.0819
     19 C15         3.2746    0.3108    9.3725 C.2       1 <0>        -0.1153
     20 C16         3.8482    1.5291    9.7687 C.2       1 <0>        -0.2231
     21 C17         4.1625    2.2057    8.6420 C.2       1 <0>        -0.0110
     22 O3          3.8159    1.4631    7.5826 O.3       1 <0>        -0.1590
     23 C18         2.3559   -0.5588   -0.3898 C.2       1 <0>         0.5255
     24 O4          2.6398    0.1084    0.5823 O.2       1 <0>        -0.5341
     25 N3          3.0110   -0.3689   -1.5523 N.am      1 <0>        -0.8558
     26 H1         -0.5615    2.1736    0.9344 H         1 <0>         0.0705
     27 H2         -2.0347    1.9663   -0.0427 H         1 <0>         0.0430
     28 H3         -2.0416    1.5266    1.6821 H         1 <0>         0.0720
     29 H4         -1.8625   -0.5381    0.4501 H         1 <0>         0.0715
     30 H5         -1.1773    0.3646   -1.7245 H         1 <0>         0.0800
     31 H6          0.3981    0.8578   -1.0574 H         1 <0>         0.0671
     32 H7         -0.6360   -2.0101   -1.2139 H         1 <0>         0.0806
     33 H8          0.5657   -1.2872   -2.3097 H         1 <0>         0.0721
     34 H9          1.6868   -2.5813   -0.5271 H         1 <0>         0.1113
     35 H10        -0.0313   -2.4220    1.2134 H         1 <0>         0.0804
     36 H11         1.4933   -1.7460    1.8429 H         1 <0>         0.1019
     37 H12         2.3744   -0.1455    2.7170 H         1 <0>         0.1182
     38 H13         0.2572   -1.1148    4.6909 H         1 <0>         0.0742
     39 H14         0.9138   -2.0633    3.3346 H         1 <0>         0.0855
     40 H15         2.0343   -2.5736    5.5338 H         1 <0>         0.0996
     41 H16         3.1647   -1.9618    4.2988 H         1 <0>         0.0742
     42 H17         3.0878    1.4606    6.0122 H         1 <0>         0.1089
     43 H18         3.8512    0.6669    4.6106 H         1 <0>         0.0742
     44 H19         1.9881    2.0505    3.8225 H         1 <0>         0.0830
     45 H20         0.8789    1.2658    4.9733 H         1 <0>         0.0736
     46 H21         2.9094   -0.4711   10.0219 H         1 <0>         0.1605
     47 H22         4.0080    1.8631   10.7832 H         1 <0>         0.1576
     48 H23         4.6208    3.1828    8.6022 H         1 <0>         0.2106
     49 H24         2.7839   -0.9025   -2.3298 H         1 <0>         0.4008
     50 H25         3.7096    0.3015   -1.6113 H         1 <0>         0.4025
@<TRIPOS>BOND
     1    1    2 1
     2    1   26 1
     3    1   27 1
     4    1   28 1
     5    2    7 1
     6    2    3 1
     7    2   29 1
     8    3    4 1
     9    3   30 1
    10    3   31 1
    11    4    5 1
    12    4   32 1
    13    4   33 1
    14    5    6 1
    15    5   23 1
    16    5   34 1
    17    6    7 1
    18    6   35 1
    19    6   36 1
    20    7    8 am
    21    8    9 2
    22    8   10 1
    23   10   15 1
    24   10   11 1
    25   10   37 1
    26   11   12 1
    27   11   38 1
    28   11   39 1
    29   12   13 1
    30   12   40 1
    31   12   41 1
    32   13   14 1
    33   13   16 am
    34   14   15 1
    35   14   42 1
    36   14   43 1
    37   15   44 1
    38   15   45 1
    39   16   17 2
    40   16   18 1
    41   18   22 1
    42   18   19 2
    43   19   20 1
    44   19   46 1
    45   20   21 2
    46   20   47 1
    47   21   22 1
    48   21   48 1
    49   23   24 2
    50   23   25 am
    51   25   49 1
    52   25   50 1
@<TRIPOS>MOLECULE
ZINC67271740
   46    48     0     0     0
SMALL
USER_CHARGES

@<TRIPOS>ATOM
      1 C1          1.2826    1.6950    0.5157 C.3       1 <0>        -0.1579
      2 C2          0.5933    0.3761    0.1605 C.3       1 <0>         0.1799
      3 H1          0.9602   -0.4137    0.8161 H         1 <0>         0.1136
      4 C3         -0.8960    0.5241    0.3373 C.ar      1 <0>        -0.1485
      5 C4         -1.6287    1.3277   -0.5232 C.ar      1 <0>        -0.0735
      6 C5         -2.9962    1.4341   -0.3226 C.ar      1 <0>        -0.1727
      7 C6         -3.5799    0.7407    0.7210 C.ar      1 <0>         0.0995
      8 N1         -2.8516   -0.0141    1.5200 N.ar      1 <0>        -0.4815
      9 C7         -1.5495   -0.1437    1.3553 C.ar      1 <0>         0.1138
     10 N2          0.8878    0.0307   -1.2324 N.am      1 <0>        -0.6103
     11 C8          0.6114    0.9948   -2.3003 C.3       1 <0>         0.0655
     12 C9          1.4131   -1.1739   -1.5314 C.2       1 <0>         0.5226
     13 O1          1.6894   -1.9523   -0.6433 O.2       1 <0>        -0.5261
     14 C10         1.6571   -1.5537   -2.9692 C.3       1 <0>        -0.1022
     15 C11         0.3307   -1.9410   -3.6265 C.3       1 <0>        -0.1175
     16 C12         0.5781   -2.3147   -5.0902 C.3       1 <0>        -0.1089
     17 C13         1.5591   -3.4796   -5.1617 C.3       1 <0>         0.1210
     18 C14         2.8780   -3.1174   -4.4878 C.3       1 <0>        -0.1116
     19 C15         2.6212   -2.7405   -3.0266 C.3       1 <0>        -0.1105
     20 C16         0.9617   -4.7128   -4.5242 C.2       1 <0>         0.5302
     21 O2          0.6128   -4.8470   -3.3709 O.2       1 <0>        -0.4469
     22 N3          0.8984   -5.6329   -5.5089 N.am      1 <0>        -0.6818
     23 C17         1.3696   -5.1506   -6.6653 C.2       1 <0>         0.7044
     24 O3          1.4158   -5.7922   -7.6965 O.2       1 <0>        -0.5397
     25 N4          1.7868   -3.8747   -6.5577 N.am      1 <0>        -0.7186
     26 H2          2.3598    1.5880    0.3879 H         1 <0>         0.0677
     27 H3          0.9156    2.4848   -0.1399 H         1 <0>         0.0614
     28 H4          1.0634    1.9520    1.5520 H         1 <0>         0.0731
     29 H5         -1.1453    1.8583   -1.3302 H         1 <0>         0.1377
     30 H6         -3.5980    2.0513   -0.9733 H         1 <0>         0.1360
     31 H7         -4.6447    0.8183    0.8840 H         1 <0>         0.1564
     32 H8         -0.9868   -0.7752    2.0267 H         1 <0>         0.1560
     33 H9          0.6176    2.0042   -1.8890 H         1 <0>         0.0797
     34 H10         1.3771    0.9120   -3.0716 H         1 <0>         0.0758
     35 H11        -0.3661    0.7854   -2.7347 H         1 <0>         0.0605
     36 H12         2.0917   -0.7066   -3.4999 H         1 <0>         0.0972
     37 H13        -0.0998   -2.7937   -3.1014 H         1 <0>         0.0888
     38 H14        -0.3588   -1.0982   -3.5780 H         1 <0>         0.0787
     39 H15        -0.3643   -2.6046   -5.5550 H         1 <0>         0.0803
     40 H16         0.9941   -1.4568   -5.6185 H         1 <0>         0.0905
     41 H17         3.5533   -3.9720   -4.5290 H         1 <0>         0.0804
     42 H18         3.3305   -2.2723   -5.0066 H         1 <0>         0.0886
     43 H19         3.5630   -2.4671   -2.5508 H         1 <0>         0.0795
     44 H20         2.1829   -3.5905   -2.5035 H         1 <0>         0.0942
     45 H21         0.5546   -6.5326   -5.3931 H         1 <0>         0.4338
     46 H22         2.1630   -3.3251   -7.2630 H         1 <0>         0.4417
@<TRIPOS>BOND
     1    1    2 1
     2    1   26 1
     3    1   27 1
     4    1   28 1
     5    2    3 1
     6    2    4 1
     7    2   10 1
     8    4    9 ar
     9    4    5 ar
    10    5    6 ar
    11    5   29 1
    12    6    7 ar
    13    6   30 1
    14    7    8 ar
    15    7   31 1
    16    8    9 ar
    17    9   32 1
    18   10   11 1
    19   10   12 am
    20   11   33 1
    21   11   34 1
    22   11   35 1
    23   12   13 2
    24   12   14 1
    25   14   19 1
    26   14   15 1
    27   14   36 1
    28   15   16 1
    29   15   37 1
    30   15   38 1
    31   16   17 1
    32   16   39 1
    33   16   40 1
    34   17   25 1
    35   17   18 1
    36   17   20 1
    37   18   19 1
    38   18   41 1
    39   18   42 1
    40   19   43 1
    41   19   44 1
    42   20   21 2
    43   20   22 am
    44   22   23 am
    45   22   45 1
    46   23   24 2
    47   23   25 am
    48   25   46 1
@<TRIPOS>MOLECULE
ZINC13000125
   43    45     0     0     0
SMALL
USER_CHARGES
N-[(2R)-2-methyl-3-oxo-4H-1,4-benzoxazin-6-yl]-6-oxo-1-propyl-pyridazine-3-carboxamide
@<TRIPOS>ATOM
      1 C1         -5.1791    0.4128   12.6038 C.3       1 <0>        -0.1491
      2 C2         -6.0085    0.5496   11.3253 C.3       1 <0>        -0.1383
      3 C3         -5.9553    1.9981   10.8356 C.3       1 <0>         0.1047
      4 N1         -6.7494    2.1292    9.6115 N.am      1 <0>        -0.3305
      5 C4         -8.0555    2.4404    9.7085 C.2       1 <0>         0.4799
      6 O1         -8.5667    2.6093   10.8031 O.2       1 <0>        -0.5125
      7 C5         -8.8301    2.5696    8.5343 C.2       1 <0>        -0.1834
      8 C6         -8.2115    2.3704    7.3359 C.2       1 <0>        -0.0347
      9 C7         -6.8331    2.0467    7.3393 C.2       1 <0>         0.0127
     10 N2         -6.1818    1.9392    8.4756 N.2       1 <0>        -0.1755
     11 C8         -6.1256    1.8229    6.0604 C.2       1 <0>         0.5943
     12 O2         -6.7273    1.9170    5.0083 O.2       1 <0>        -0.5017
     13 N3         -4.8135    1.5147    6.0611 N.am      1 <0>        -0.6537
     14 C9         -4.1180    1.4115    4.8503 C.ar      1 <0>         0.1546
     15 C10        -3.0824    0.4951    4.7208 C.ar      1 <0>        -0.1293
     16 C11        -2.3927    0.3898    3.5274 C.ar      1 <0>        -0.0842
     17 C12        -2.7348    1.1985    2.4575 C.ar      1 <0>         0.0669
     18 C13        -3.7732    2.1201    2.5846 C.ar      1 <0>         0.1146
     19 C14        -4.4638    2.2259    3.7799 C.ar      1 <0>        -0.1251
     20 N4         -4.1058    2.9333    1.4919 N.am      1 <0>        -0.6590
     21 C15        -3.6461    2.6026    0.2655 C.2       1 <0>         0.4936
     22 O3         -3.8960    3.3080   -0.6891 O.2       1 <0>        -0.5017
     23 C16        -2.8208    1.3536    0.0881 C.3       1 <0>         0.0778
     24 H1         -3.4801    0.5077   -0.1067 H         1 <0>         0.1063
     25 O4         -2.0656    1.1040    1.2764 O.3       1 <0>        -0.2987
     26 C17        -1.8659    1.5375   -1.0931 C.3       1 <0>        -0.1364
     27 H2         -5.2170   -0.6192   12.9527 H         1 <0>         0.0649
     28 H3         -4.1451    0.6888   12.3973 H         1 <0>         0.0609
     29 H4         -5.5845    1.0712   13.3721 H         1 <0>         0.0612
     30 H5         -7.0425    0.2736   11.5318 H         1 <0>         0.0714
     31 H6         -5.6031   -0.1088   10.5571 H         1 <0>         0.0720
     32 H7         -4.9213    2.2742   10.6291 H         1 <0>         0.1060
     33 H8         -6.3607    2.6565   11.6039 H         1 <0>         0.1118
     34 H9         -9.8799    2.8181    8.5844 H         1 <0>         0.1728
     35 H10        -8.7582    2.4575    6.4086 H         1 <0>         0.1658
     36 H11        -4.3511    1.3644    6.9004 H         1 <0>         0.4224
     37 H12        -2.8150   -0.1368    5.5549 H         1 <0>         0.1411
     38 H13        -1.5879   -0.3236    3.4297 H         1 <0>         0.1474
     39 H14        -5.2687    2.9390    3.8793 H         1 <0>         0.1468
     40 H15        -4.6573    3.7217    1.6148 H         1 <0>         0.4175
     41 H16        -1.2071    2.3841   -0.8993 H         1 <0>         0.0716
     42 H17        -2.4412    1.7250   -1.9997 H         1 <0>         0.0928
     43 H18        -1.2689    0.6346   -1.2218 H         1 <0>         0.0821
@<TRIPOS>BOND
     1    1    2 1
     2    1   27 1
     3    1   28 1
     4    1   29 1
     5    2    3 1
     6    2   30 1
     7    2   31 1
     8    3    4 1
     9    3   32 1
    10    3   33 1
    11    4   10 1
    12    4    5 am
    13    5    6 2
    14    5    7 1
    15    7    8 2
    16    7   34 1
    17    8    9 1
    18    8   35 1
    19    9   10 2
    20    9   11 1
    21   11   12 2
    22   11   13 am
    23   13   14 1
    24   13   36 1
    25   14   19 ar
    26   14   15 ar
    27   15   16 ar
    28   15   37 1
    29   16   17 ar
    30   16   38 1
    31   17   25 1
    32   17   18 ar
    33   18   19 ar
    34   18   20 1
    35   19   39 1
    36   20   21 am
    37   20   40 1
    38   21   22 2
    39   21   23 1
    40   23   24 1
    41   23   25 1
    42   23   26 1
    43   26   41 1
    44   26   42 1
    45   26   43 1
@<TRIPOS>MOLECULE
ZINC38519870
   44    47     0     0     0
SMALL
USER_CHARGES

@<TRIPOS>ATOM
      1 C1         -0.0184    1.5028    0.0103 C.3       1 <0>        -0.0768
      2 C2          0.0021   -0.0041    0.0020 C.2       1 <0>        -0.0053
      3 C3         -1.0805   -0.7968    0.0027 C.2       1 <0>        -0.1888
      4 C4         -0.5714   -2.1760   -0.0071 C.2       1 <0>        -0.2486
      5 C5          0.7883   -2.0656   -0.0128 C.2       1 <0>         0.0906
      6 O1          1.1060   -0.7673   -0.0131 O.3       1 <0>        -0.1711
      7 C6          1.7660   -3.2124   -0.0232 C.3       1 <0>        -0.0864
      8 C7         -1.3643   -3.4182   -0.0102 C.2       1 <0>         0.5869
      9 O2         -0.8036   -4.4975   -0.0182 O.2       1 <0>        -0.4904
     10 N1         -2.7107   -3.3582   -0.0041 N.am      1 <0>        -0.6307
     11 C8         -3.4644   -4.5391   -0.0070 C.2       1 <0>         0.3445
     12 C9         -4.8541   -4.6219   -0.0071 C.2       1 <0>        -0.3024
     13 C10        -5.1978   -5.9468   -0.0185 C.2       1 <0>         0.3429
     14 N2         -4.0588   -6.6656   -0.0143 N.pl3     1 <0>        -0.3667
     15 N3         -2.9821   -5.7640   -0.0159 N.2       1 <0>        -0.2618
     16 C11        -3.9606   -8.1273   -0.0132 C.3       1 <0>         0.0987
     17 N4         -6.5288   -6.3626   -0.0427 N.am      1 <0>        -0.6458
     18 C12        -7.4820   -5.4312   -0.2570 C.2       1 <0>         0.5407
     19 O3         -8.6455   -5.7336   -0.0957 O.2       1 <0>        -0.5073
     20 C13        -7.1474   -4.0317   -0.6896 C.3       1 <0>        -0.1335
     21 C14        -5.8838   -3.5209    0.0105 C.3       1 <0>         0.0846
     22 H1         -6.1173   -3.2528    1.0409 H         1 <0>         0.1152
     23 C15        -5.3508   -2.3154   -0.7202 C.2       1 <0>        -0.0131
     24 C16        -5.1676   -1.0923   -0.1912 C.2       1 <0>        -0.2057
     25 C17        -4.6547   -0.2726   -1.2226 C.2       1 <0>        -0.2164
     26 C18        -4.5551   -1.0438   -2.3202 C.2       1 <0>        -0.0308
     27 O4         -4.9726   -2.2816   -2.0084 O.3       1 <0>        -0.1647
     28 H2          1.0042    1.8801    0.0026 H         1 <0>         0.0787
     29 H3         -0.5455    1.8639   -0.8728 H         1 <0>         0.0884
     30 H4         -0.5286    1.8543    0.9071 H         1 <0>         0.0887
     31 H5         -2.1146   -0.4853    0.0092 H         1 <0>         0.1566
     32 H6          1.9969   -3.4837   -1.0533 H         1 <0>         0.0915
     33 H7          2.6813   -2.9142    0.4879 H         1 <0>         0.0809
     34 H8          1.3268   -4.0689    0.4883 H         1 <0>         0.1101
     35 H9         -3.1578   -2.4975    0.0023 H         1 <0>         0.4193
     36 H10        -3.9328   -8.4903   -1.0406 H         1 <0>         0.0812
     37 H11        -3.0500   -8.4299    0.5038 H         1 <0>         0.1008
     38 H12        -4.8260   -8.5492    0.4979 H         1 <0>         0.0854
     39 H13        -6.7629   -7.2945    0.0903 H         1 <0>         0.4164
     40 H14        -6.9881   -4.0198   -1.7678 H         1 <0>         0.1136
     41 H15        -7.9814   -3.3736   -0.4457 H         1 <0>         0.1198
     42 H16        -5.3735   -0.7936    0.8261 H         1 <0>         0.1543
     43 H17        -4.3934    0.7724   -1.1443 H         1 <0>         0.1528
     44 H18        -4.1963   -0.7230   -3.2870 H         1 <0>         0.2038
@<TRIPOS>BOND
     1    1    2 1
     2    1   28 1
     3    1   29 1
     4    1   30 1
     5    2    6 1
     6    2    3 2
     7    3    4 1
     8    3   31 1
     9    4    5 2
    10    4    8 1
    11    5    6 1
    12    5    7 1
    13    7   32 1
    14    7   33 1
    15    7   34 1
    16    8    9 2
    17    8   10 am
    18   10   11 1
    19   10   35 1
    20   11   15 2
    21   11   12 1
    22   12   21 1
    23   12   13 2
    24   13   14 1
    25   13   17 1
    26   14   15 1
    27   14   16 1
    28   16   36 1
    29   16   37 1
    30   16   38 1
    31   17   18 am
    32   17   39 1
    33   18   19 2
    34   18   20 1
    35   20   21 1
    36   20   40 1
    37   20   41 1
    38   21   22 1
    39   21   23 1
    40   23   27 1
    41   23   24 2
    42   24   25 1
    43   24   42 1
    44   25   26 2
    45   25   43 1
    46   26   27 1
    47   26   44 1
@<TRIPOS>MOLECULE
ZINC59771022
   36    38     0     0     0
SMALL
USER_CHARGES

@<TRIPOS>ATOM
      1 C1         -0.0222    1.7863    0.0119 C.2       1 <0>         0.0526
      2 N1          1.2730    2.0336    0.0008 N.2       1 <0>        -0.2546
      3 N2          2.1327    1.1108   -0.0123 N.2       1 <0>        -0.2797
      4 C2          1.7850   -0.1691   -0.0159 C.2       1 <0>         0.2842
      5 S1          0.0021   -0.0041    0.0020 S.3       1 <0>         0.0039
      6 N3          2.5763   -1.3097   -0.0300 N.am      1 <0>        -0.5842
      7 C3          3.9194   -1.1979   -0.0421 C.2       1 <0>         0.5185
      8 O1          4.4372   -0.0999   -0.0408 O.2       1 <0>        -0.4328
      9 C4          4.7698   -2.4236   -0.0572 C.2       1 <0>         0.5182
     10 O2          4.2521   -3.5216   -0.0586 O.2       1 <0>        -0.4338
     11 N4          6.1129   -2.3118   -0.0694 N.am      1 <0>        -0.5835
     12 C5          6.9043   -3.4524   -0.0835 C.2       1 <0>         0.2751
     13 N5          6.5565   -4.7323   -0.0934 N.2       1 <0>        -0.2728
     14 N6          7.4161   -5.6551   -0.1058 N.2       1 <0>        -0.2521
     15 C6          8.7114   -5.4078   -0.1097 C.2       1 <0>         0.0839
     16 S2          8.6871   -3.6175   -0.1014 S.3       1 <0>        -0.0024
     17 C7          9.8791   -6.3604   -0.1239 C.3       1 <0>         0.0108
     18 C8          9.8127   -7.2299   -1.3810 C.3       1 <0>        -0.1096
     19 C9         10.9982   -8.1970   -1.3954 C.3       1 <0>        -0.1181
     20 C10        10.9430   -9.0899   -0.1542 C.3       1 <0>        -0.1245
     21 C11        11.0094   -8.2204    1.1029 C.3       1 <0>        -0.1181
     22 C12         9.8239   -7.2533    1.1173 C.3       1 <0>        -0.1095
     23 H1         -0.8590    2.4689    0.0273 H         1 <0>         0.2464
     24 H2          2.1627   -2.1871   -0.0310 H         1 <0>         0.4443
     25 H3          6.5266   -1.4345   -0.0684 H         1 <0>         0.4435
     26 H4         10.8103   -5.7938   -0.1228 H         1 <0>         0.1012
     27 H5          8.8815   -7.7965   -1.3822 H         1 <0>         0.0780
     28 H6          9.8520   -6.5938   -2.2653 H         1 <0>         0.0674
     29 H7         10.9509   -8.8165   -2.2911 H         1 <0>         0.0698
     30 H8         11.9293   -7.6304   -1.3943 H         1 <0>         0.0654
     31 H9         10.0119   -9.6565   -0.1553 H         1 <0>         0.0660
     32 H10        11.7876   -9.7789   -0.1645 H         1 <0>         0.0656
     33 H11        10.9701   -8.8565    1.9872 H         1 <0>         0.0698
     34 H12        11.9406   -7.6538    1.1040 H         1 <0>         0.0654
     35 H13         9.8713   -6.6338    2.0129 H         1 <0>         0.0675
     36 H14         8.8928   -7.8199    1.1162 H         1 <0>         0.0780
@<TRIPOS>BOND
     1    1    5 1
     2    1    2 2
     3    1   23 1
     4    2    3 1
     5    3    4 2
     6    4    5 1
     7    4    6 1
     8    6    7 am
     9    6   24 1
    10    7    8 2
    11    7    9 1
    12    9   10 2
    13    9   11 am
    14   11   12 1
    15   11   25 1
    16   12   16 1
    17   12   13 2
    18   13   14 1
    19   14   15 2
    20   15   16 1
    21   15   17 1
    22   17   22 1
    23   17   18 1
    24   17   26 1
    25   18   19 1
    26   18   27 1
    27   18   28 1
    28   19   20 1
    29   19   29 1
    30   19   30 1
    31   20   21 1
    32   20   31 1
    33   20   32 1
    34   21   22 1
    35   21   33 1
    36   21   34 1
    37   22   35 1
    38   22   36 1
@<TRIPOS>MOLECULE
ZINC13543936
   39    40     0     0     0
SMALL
USER_CHARGES

@<TRIPOS>ATOM
      1 C1         -0.1598    1.5049    0.1612 C.3       1 <0>        -0.0830
      2 C2         -0.1027   -0.0003    0.1136 C.2       1 <0>         0.1809
      3 N1         -0.0957   -0.7250   -0.9362 N.2       1 <0>        -0.2642
      4 N2         -0.0376   -2.0876   -0.6604 N.am      1 <0>        -0.4156
      5 C3         -0.0024   -2.3134    0.6697 C.2       1 <0>         0.4975
      6 O1          0.0501   -3.3846    1.2354 O.2       1 <0>        -0.3680
      7 C4         -0.0363   -0.9356    1.3028 C.3       1 <0>         0.0040
      8 H1         -0.9222   -0.8246    1.9281 H         1 <0>         0.1537
      9 N3          1.1802   -0.6932    2.0822 N.2       1 <0>        -0.2269
     10 N4          1.3653   -1.3001    3.1475 N.2       1 <0>        -0.1503
     11 C5          2.5014   -1.0737    3.8754 C.ar      1 <0>        -0.0046
     12 C6          3.4519   -0.1545    3.4225 C.ar      1 <0>        -0.0566
     13 C7          4.5942    0.0708    4.1576 C.ar      1 <0>        -0.1733
     14 C8          4.8029   -0.6152    5.3496 C.ar      1 <0>         0.1942
     15 C9          3.8593   -1.5312    5.8032 C.ar      1 <0>        -0.1815
     16 C10         2.7117   -1.7569    5.0764 C.ar      1 <0>        -0.0112
     17 N5          5.9619   -0.3844    6.0921 N.am      1 <0>        -0.5563
     18 C11         7.0303    0.4528    5.5408 C.3       1 <0>         0.0606
     19 C12         6.0982   -0.9315    7.3162 C.2       1 <0>         0.5142
     20 O2          5.2579   -1.6998    7.7340 O.2       1 <0>        -0.5093
     21 C13         7.2948   -0.5888    8.1658 C.3       1 <0>        -0.1771
     22 C14        -0.0197   -3.0551   -1.5985 C.2       1 <0>         0.5733
     23 S1          0.0525   -4.7002   -1.1302 S.2       1 <0>        -0.5260
     24 N6         -0.0586   -2.7275   -2.9053 N.pl3     1 <0>        -0.7724
     25 H2          0.8530    1.9075    0.1467 H         1 <0>         0.1047
     26 H3         -0.7104    1.8752   -0.7035 H         1 <0>         0.0948
     27 H4         -0.6632    1.8206    1.0750 H         1 <0>         0.0962
     28 H5          3.2907    0.3782    2.4970 H         1 <0>         0.1411
     29 H6          5.3293    0.7807    3.8081 H         1 <0>         0.1355
     30 H7          4.0246   -2.0623    6.7289 H         1 <0>         0.1943
     31 H8          1.9772   -2.4647    5.4315 H         1 <0>         0.1435
     32 H9          6.9121    1.4754    5.8992 H         1 <0>         0.0740
     33 H10         7.9974    0.0651    5.8609 H         1 <0>         0.0883
     34 H11         6.9762    0.4408    4.4522 H         1 <0>         0.0877
     35 H12         7.9765    0.0422    7.5955 H         1 <0>         0.0857
     36 H13         6.9662   -0.0553    9.0577 H         1 <0>         0.1042
     37 H14         7.8070   -1.5053    8.4586 H         1 <0>         0.1030
     38 H15        -0.0995   -1.7954   -3.1706 H         1 <0>         0.4096
     39 H16        -0.0457   -3.4238   -3.5804 H         1 <0>         0.4353
@<TRIPOS>BOND
     1    1    2 1
     2    1   25 1
     3    1   26 1
     4    1   27 1
     5    2    7 1
     6    2    3 2
     7    3    4 1
     8    4    5 am
     9    4   22 1
    10    5    6 2
    11    5    7 1
    12    7    8 1
    13    7    9 1
    14    9   10 2
    15   10   11 1
    16   11   16 ar
    17   11   12 ar
    18   12   13 ar
    19   12   28 1
    20   13   14 ar
    21   13   29 1
    22   14   15 ar
    23   14   17 1
    24   15   16 ar
    25   15   30 1
    26   16   31 1
    27   17   18 1
    28   17   19 am
    29   18   32 1
    30   18   33 1
    31   18   34 1
    32   19   20 2
    33   19   21 1
    34   21   35 1
    35   21   36 1
    36   21   37 1
    37   22   23 2
    38   22   24 1
    39   24   38 1
    40   24   39 1
@<TRIPOS>MOLECULE
ZINC67498049
   46    48     0     0     0
SMALL
USER_CHARGES

@<TRIPOS>ATOM
      1 C1         -0.0184    1.5028    0.0103 C.3       1 <0>        -0.0917
      2 C2          0.0021   -0.0041    0.0020 C.2       1 <0>         0.0801
      3 C3         -1.0767   -0.8104    0.0026 C.2       1 <0>        -0.2826
      4 C4         -0.6269   -2.1430   -0.0073 C.2       1 <0>         0.0869
      5 N1          0.6760   -2.1297   -0.0134 N.2       1 <0>        -0.3009
      6 O1          1.0981   -0.7779   -0.0131 O.3       1 <0>        -0.0717
      7 C5         -1.4995   -3.3716   -0.0097 C.3       1 <0>         0.1959
      8 N2         -1.6912   -3.8317   -1.3873 N.am      1 <0>        -0.7221
      9 C6         -2.4422   -4.9231   -1.6349 C.2       1 <0>         0.5065
     10 O2         -2.9593   -5.5243   -0.7173 O.2       1 <0>        -0.5177
     11 C7         -2.6394   -5.3964   -3.0520 C.3       1 <0>         0.1001
     12 N3         -3.4877   -6.5908   -3.0544 N.am      1 <0>        -0.5638
     13 C8         -3.0203   -7.8529   -2.9613 C.2       1 <0>         0.5419
     14 O3         -1.8633   -8.2017   -2.8635 O.2       1 <0>        -0.4527
     15 C9         -4.2431   -8.7402   -3.0041 C.3       1 <0>         0.1300
     16 C10        -4.1860   -9.6653   -4.2149 C.3       1 <0>        -0.1126
     17 C11        -2.9875  -10.6085   -4.0817 C.3       1 <0>        -0.1282
     18 C12        -3.1262  -11.4289   -2.7976 C.3       1 <0>        -0.1183
     19 C13        -3.1614  -10.4895   -1.5905 C.3       1 <0>        -0.1238
     20 C14        -4.3604   -9.5457   -1.7148 C.3       1 <0>        -0.0823
     21 H1         -5.2812  -10.1288   -1.7332 H         1 <0>         0.0914
     22 C15        -4.3848   -8.5923   -0.5184 C.3       1 <0>        -0.1548
     23 N4         -5.3630   -7.7987   -3.1272 N.am      1 <0>        -0.7161
     24 C16        -4.8231   -6.5649   -3.1434 C.2       1 <0>         0.7104
     25 O4         -5.4750   -5.5430   -3.2324 O.2       1 <0>        -0.5399
     26 H2          1.0042    1.8801    0.0026 H         1 <0>         0.0869
     27 H3         -0.5455    1.8639   -0.8728 H         1 <0>         0.0986
     28 H4         -0.5286    1.8543    0.9071 H         1 <0>         0.0987
     29 H5         -2.1079   -0.4896    0.0097 H         1 <0>         0.1630
     30 H6         -1.0205   -4.1586    0.5729 H         1 <0>         0.0938
     31 H7         -2.4670   -3.1310    0.4310 H         1 <0>         0.1007
     32 H8         -1.2776   -3.3509   -2.1212 H         1 <0>         0.4066
     33 H9         -3.1184   -4.6094   -3.6346 H         1 <0>         0.1309
     34 H10        -1.6719   -5.6370   -3.4927 H         1 <0>         0.1286
     35 H11        -5.1042  -10.2501   -4.2687 H         1 <0>         0.0869
     36 H12        -4.0808   -9.0702   -5.1220 H         1 <0>         0.0737
     37 H13        -2.9558  -11.2794   -4.9401 H         1 <0>         0.0731
     38 H14        -2.0680  -10.0245   -4.0424 H         1 <0>         0.0804
     39 H15        -4.0493  -12.0074   -2.8344 H         1 <0>         0.0635
     40 H16        -2.2770  -12.1061   -2.7060 H         1 <0>         0.0690
     41 H17        -3.2535  -11.0758   -0.6763 H         1 <0>         0.0727
     42 H18        -2.2414   -9.9059   -1.5572 H         1 <0>         0.0807
     43 H19        -5.2389   -7.9208   -0.6064 H         1 <0>         0.0585
     44 H20        -4.4686   -9.1680    0.4033 H         1 <0>         0.0649
     45 H21        -3.4643   -8.0088   -0.5000 H         1 <0>         0.0634
     46 H22        -6.3056   -8.0212   -3.1823 H         1 <0>         0.4411
@<TRIPOS>BOND
     1    1    2 1
     2    1   26 1
     3    1   27 1
     4    1   28 1
     5    2    6 1
     6    2    3 2
     7    3    4 1
     8    3   29 1
     9    4    5 2
    10    4    7 1
    11    5    6 1
    12    7    8 1
    13    7   30 1
    14    7   31 1
    15    8    9 am
    16    8   32 1
    17    9   10 2
    18    9   11 1
    19   11   12 1
    20   11   33 1
    21   11   34 1
    22   12   24 am
    23   12   13 am
    24   13   14 2
    25   13   15 1
    26   15   20 1
    27   15   16 1
    28   15   23 1
    29   16   17 1
    30   16   35 1
    31   16   36 1
    32   17   18 1
    33   17   37 1
    34   17   38 1
    35   18   19 1
    36   18   39 1
    37   18   40 1
    38   19   20 1
    39   19   41 1
    40   19   42 1
    41   20   21 1
    42   20   22 1
    43   22   43 1
    44   22   44 1
    45   22   45 1
    46   23   24 am
    47   23   46 1
    48   24   25 2
@<TRIPOS>MOLECULE
ZINC09820334
   46    50     0     0     0
SMALL
USER_CHARGES
1-(9H-xanthen-9-ylcarbonyl)indoline-2-carboxamide
@<TRIPOS>ATOM
      1 C1          2.1326   -6.0636    5.2019 C.ar      1 <0>        -0.1392
      2 C2          2.1901   -4.6830    5.2595 C.ar      1 <0>        -0.0877
      3 C3          2.0215   -3.9332    4.1152 C.ar      1 <0>        -0.1285
      4 C4          1.7911   -4.5612    2.8895 C.ar      1 <0>         0.1515
      5 C5          1.7353   -5.9448    2.8425 C.ar      1 <0>        -0.1431
      6 C6          1.9053   -6.6924    3.9922 C.ar      1 <0>        -0.0740
      7 C7          1.4769   -6.3679    1.4139 C.3       1 <0>        -0.0743
      8 C8          1.3823   -5.0484    0.6306 C.3       1 <0>         0.1028
      9 H1          0.3969   -4.9458    0.1761 H         1 <0>         0.1228
     10 N1          1.5951   -3.9945    1.6263 N.am      1 <0>        -0.5400
     11 C9          1.5959   -2.6725    1.3639 C.2       1 <0>         0.5515
     12 O1          1.4950   -1.8741    2.2713 O.2       1 <0>        -0.4922
     13 C10         1.7223   -2.1863   -0.0569 C.3       1 <0>        -0.0414
     14 C11         2.5952   -0.9614   -0.0866 C.ar      1 <0>        -0.1290
     15 C12         3.9681   -1.1042    0.0095 C.ar      1 <0>        -0.0684
     16 C13         4.7870    0.0087   -0.0144 C.ar      1 <0>        -0.1427
     17 C14         4.2358    1.2708   -0.1362 C.ar      1 <0>        -0.0818
     18 C15         2.8668    1.4194   -0.2323 C.ar      1 <0>        -0.1371
     19 C16         2.0401    0.3019   -0.2081 C.ar      1 <0>         0.1274
     20 O2          0.6993    0.4690   -0.3038 O.3       1 <0>        -0.2398
     21 C17        -0.0871   -0.5628   -0.6937 C.ar      1 <0>         0.1340
     22 C18         0.3539   -1.8725   -0.5977 C.ar      1 <0>        -0.1471
     23 C19        -0.4699   -2.9082   -1.0016 C.ar      1 <0>        -0.0929
     24 C20        -1.7309   -2.6408   -1.4993 C.ar      1 <0>        -0.1378
     25 C21        -2.1733   -1.3346   -1.5977 C.ar      1 <0>        -0.0806
     26 C22        -1.3557   -0.2973   -1.1968 C.ar      1 <0>        -0.1315
     27 C23         2.4550   -4.9932   -0.4264 C.2       1 <0>         0.5035
     28 O3          3.3258   -4.1514   -0.3633 O.2       1 <0>        -0.5102
     29 N2          2.4467   -5.8794   -1.4419 N.am      1 <0>        -0.8412
     30 H2          2.2653   -6.6489    6.0998 H         1 <0>         0.1296
     31 H3          2.3680   -4.1906    6.2041 H         1 <0>         0.1305
     32 H4          2.0675   -2.8555    4.1669 H         1 <0>         0.1367
     33 H5          1.8605   -7.7704    3.9454 H         1 <0>         0.1281
     34 H6          2.3014   -6.9765    1.0426 H         1 <0>         0.0984
     35 H7          0.5382   -6.9174    1.3440 H         1 <0>         0.1071
     36 H8          2.1782   -2.9676   -0.6650 H         1 <0>         0.1506
     37 H9          4.4013   -2.0890    0.1038 H         1 <0>         0.1366
     38 H10         5.8580   -0.1076    0.0618 H         1 <0>         0.1294
     39 H11         4.8761    2.1403   -0.1555 H         1 <0>         0.1351
     40 H12         2.4374    2.4054   -0.3309 H         1 <0>         0.1362
     41 H13        -0.1265   -3.9294   -0.9264 H         1 <0>         0.1205
     42 H14        -2.3708   -3.4525   -1.8126 H         1 <0>         0.1325
     43 H15        -3.1583   -1.1258   -1.9884 H         1 <0>         0.1379
     44 H16        -1.7022    0.7227   -1.2738 H         1 <0>         0.1392
     45 H17         1.7503   -6.5526   -1.4923 H         1 <0>         0.4069
     46 H18         3.1372   -5.8438   -2.1222 H         1 <0>         0.4115
@<TRIPOS>BOND
     1    1    6 ar
     2    1    2 ar
     3    1   30 1
     4    2    3 ar
     5    2   31 1
     6    3    4 ar
     7    3   32 1
     8    4   10 1
     9    4    5 ar
    10    5    6 ar
    11    5    7 1
    12    6   33 1
    13    7    8 1
    14    7   34 1
    15    7   35 1
    16    8    9 1
    17    8   10 1
    18    8   27 1
    19   10   11 am
    20   11   12 2
    21   11   13 1
    22   13   22 1
    23   13   14 1
    24   13   36 1
    25   14   19 ar
    26   14   15 ar
    27   15   16 ar
    28   15   37 1
    29   16   17 ar
    30   16   38 1
    31   17   18 ar
    32   17   39 1
    33   18   19 ar
    34   18   40 1
    35   19   20 1
    36   20   21 1
    37   21   26 ar
    38   21   22 ar
    39   22   23 ar
    40   23   24 ar
    41   23   41 1
    42   24   25 ar
    43   24   42 1
    44   25   26 ar
    45   25   43 1
    46   26   44 1
    47   27   28 2
    48   27   29 am
    49   29   45 1
    50   29   46 1
@<TRIPOS>MOLECULE
ZINC14549630
   39    42     0     0     0
SMALL
USER_CHARGES
(3aR,4S,9bS)-4-(4-fluorophenyl)-8-nitro-3a,4,5,9b-tetrahydro-3H-cyclopenta[c]quinolin-6-ol
@<TRIPOS>ATOM
      1 C1         -0.1834    4.6050   -0.1032 C.ar      1 <0>        -0.0635
      2 C2         -0.6765    5.6511   -0.8598 C.ar      1 <0>        -0.1554
      3 C3          0.1867    6.4227   -1.6191 C.ar      1 <0>         0.1066
      4 C4          1.5439    6.1485   -1.6152 C.ar      1 <0>        -0.1531
      5 C5          2.0354    5.1052   -0.8538 C.ar      1 <0>        -0.0775
      6 C6          1.1725    4.3354   -0.0961 C.ar      1 <0>        -0.1061
      7 C7          1.7096    3.1977    0.7335 C.3       1 <0>         0.1403
      8 H1          2.7776    3.3418    0.8970 H         1 <0>         0.0736
      9 C8          1.4839    1.8864   -0.0020 C.3       1 <0>        -0.0825
     10 H2          1.8799    1.9148   -1.0171 H         1 <0>         0.1068
     11 C9         -0.0185    1.5130    0.0104 C.3       1 <0>        -0.0978
     12 C10         0.0021   -0.0041    0.0020 C.2       1 <0>        -0.1498
     13 C11         1.1532   -0.4497    0.4377 C.2       1 <0>        -0.1700
     14 C12         2.0704    0.7070    0.8003 C.3       1 <0>        -0.0188
     15 H3          3.0992    0.5026    0.5036 H         1 <0>         0.1012
     16 C13         1.9698    0.9316    2.2862 C.ar      1 <0>        -0.0978
     17 C14         2.3764   -0.0757    3.1314 C.ar      1 <0>        -0.0245
     18 C15         2.3019    0.0723    4.5005 C.ar      1 <0>        -0.0627
     19 C16         1.8058    1.2431    5.0452 C.ar      1 <0>        -0.0525
     20 C17         1.3848    2.2623    4.2113 C.ar      1 <0>         0.0601
     21 C18         1.4596    2.1120    2.8226 C.ar      1 <0>         0.1644
     22 N1          1.0194    3.1719    2.0243 N.pl3     1 <0>        -0.6092
     23 O1          0.8968    3.4151    4.7430 O.3       1 <0>        -0.4813
     24 N2          2.7529   -1.0229    5.3880 N.pl3     1 <0>         0.0341
     25 O2          2.6870   -0.8931    6.5973 O.2       1 <0>        -0.1629
     26 O3          3.1898   -2.0541    4.9091 O.3       1 <0>        -0.1615
     27 F1         -0.2948    7.4427   -2.3627 F         1 <0>        -0.1370
     28 H4         -0.8571    4.0004    0.4859 H         1 <0>         0.1404
     29 H5         -1.7353    5.8641   -0.8620 H         1 <0>         0.1379
     30 H6          2.2182    6.7499   -2.2068 H         1 <0>         0.1385
     31 H7          3.0940    4.8913   -0.8504 H         1 <0>         0.1341
     32 H8         -0.5176    1.8960   -0.8797 H         1 <0>         0.0746
     33 H9         -0.5005    1.8864    0.9139 H         1 <0>         0.0949
     34 H10        -0.8182   -0.6290   -0.3191 H         1 <0>         0.1293
     35 H11         1.4147   -1.4937    0.5272 H         1 <0>         0.1317
     36 H12         2.7651   -0.9926    2.7135 H         1 <0>         0.1554
     37 H13         1.7479    1.3606    6.1172 H         1 <0>         0.1610
     38 H14         1.1197    4.0530    2.5056 H         1 <0>         0.3818
     39 H15        -0.0590    3.4068    4.8899 H         1 <0>         0.3976
@<TRIPOS>BOND
     1    1    6 ar
     2    1    2 ar
     3    1   28 1
     4    2    3 ar
     5    2   29 1
     6    3    4 ar
     7    3   27 1
     8    4    5 ar
     9    4   30 1
    10    5    6 ar
    11    5   31 1
    12    6    7 1
    13    7    8 1
    14    7   22 1
    15    7    9 1
    16    9   10 1
    17    9   14 1
    18    9   11 1
    19   11   12 1
    20   11   32 1
    21   11   33 1
    22   12   13 2
    23   12   34 1
    24   13   14 1
    25   13   35 1
    26   14   15 1
    27   14   16 1
    28   16   21 ar
    29   16   17 ar
    30   17   18 ar
    31   17   36 1
    32   18   19 ar
    33   18   24 1
    34   19   20 ar
    35   19   37 1
    36   20   21 ar
    37   20   23 1
    38   21   22 1
    39   22   38 1
    40   23   39 1
    41   24   25 2
    42   24   26 1
@<TRIPOS>MOLECULE
ZINC14477482
   39    42     0     0     0
SMALL
USER_CHARGES

@<TRIPOS>ATOM
      1 C1         -0.9942    2.2488    0.0037 C.ar      1 <0>        -0.1023
      2 C2          0.3284    2.6508   -0.0058 C.ar      1 <0>        -0.0760
      3 C3          1.3378    1.7071   -0.0294 C.ar      1 <0>        -0.0977
      4 C4          1.0251    0.3592   -0.0430 C.ar      1 <0>        -0.0187
      5 C5         -0.2980   -0.0436   -0.0330 C.ar      1 <0>        -0.0988
      6 C6         -1.3081    0.9016   -0.0098 C.ar      1 <0>        -0.0215
      7 Cl1        -2.9691    0.3970    0.0028 Cl        1 <0>        -0.0511
      8 Cl2         2.2932   -0.8260   -0.0732 Cl        1 <0>        -0.0485
      9 C7          2.7794    2.1462   -0.0408 C.3       1 <0>         0.2100
     10 H1          3.3620    1.4284    0.5368 H         1 <0>         0.1056
     11 C8          3.2707    2.1259   -1.4574 C.3       1 <0>        -0.0910
     12 H2          2.8402    1.2661   -1.9708 H         1 <0>         0.1030
     13 C9          4.8086    2.0406   -1.5426 C.3       1 <0>        -0.0980
     14 C10         5.1349    2.7131   -2.8597 C.2       1 <0>        -0.1425
     15 C11         4.1300    3.4393   -3.2750 C.2       1 <0>        -0.1854
     16 C12         2.9978    3.3822   -2.2799 C.3       1 <0>        -0.0166
     17 H3          2.0499    3.2895   -2.8098 H         1 <0>         0.1103
     18 C13         3.0332    4.6434   -1.4633 C.ar      1 <0>        -0.0752
     19 C14         3.1059    5.8588   -2.1323 C.ar      1 <0>         0.0024
     20 C15         3.1517    7.0450   -1.4291 C.ar      1 <0>        -0.0989
     21 C16         3.1277    7.0346   -0.0461 C.ar      1 <0>        -0.0949
     22 C17         3.0517    5.8300    0.6301 C.ar      1 <0>         0.0783
     23 C18         2.9988    4.6301   -0.0828 C.ar      1 <0>         0.2042
     24 N1          2.8704    3.4380    0.6074 N.pl3     1 <0>        -0.7154
     25 O1          3.0291    5.8142    1.9899 O.3       1 <0>        -0.4840
     26 N2          3.1348    5.8814   -3.6119 N.pl3     1 <0>         0.0336
     27 O2          3.8730    6.6442   -4.1905 O.2       1 <0>        -0.1509
     28 O3          2.4203    5.1370   -4.2420 O.3       1 <0>        -0.1468
     29 H4         -1.7826    2.9867    0.0263 H         1 <0>         0.1417
     30 H5          0.5730    3.7027    0.0048 H         1 <0>         0.1372
     31 H6         -0.5426   -1.0954   -0.0436 H         1 <0>         0.1477
     32 H7          5.2683    2.5788   -0.7137 H         1 <0>         0.0802
     33 H8          5.1343    1.0005   -1.5527 H         1 <0>         0.0829
     34 H9          6.0721    2.6067   -3.3858 H         1 <0>         0.1323
     35 H10         4.1212    4.0087   -4.1927 H         1 <0>         0.1356
     36 H11         3.2069    7.9840   -1.9598 H         1 <0>         0.1493
     37 H12         3.1684    7.9632    0.5038 H         1 <0>         0.1540
     38 H13         2.8719    3.4728    1.5767 H         1 <0>         0.4128
     39 H14         2.1406    5.8573    2.3690 H         1 <0>         0.3931
@<TRIPOS>BOND
     1    1    6 ar
     2    1    2 ar
     3    1   29 1
     4    2    3 ar
     5    2   30 1
     6    3    4 ar
     7    3    9 1
     8    4    5 ar
     9    4    8 1
    10    5    6 ar
    11    5   31 1
    12    6    7 1
    13    9   10 1
    14    9   24 1
    15    9   11 1
    16   11   12 1
    17   11   16 1
    18   11   13 1
    19   13   14 1
    20   13   32 1
    21   13   33 1
    22   14   15 2
    23   14   34 1
    24   15   16 1
    25   15   35 1
    26   16   17 1
    27   16   18 1
    28   18   23 ar
    29   18   19 ar
    30   19   20 ar
    31   19   26 1
    32   20   21 ar
    33   20   36 1
    34   21   22 ar
    35   21   37 1
    36   22   23 ar
    37   22   25 1
    38   23   24 1
    39   24   38 1
    40   25   39 1
    41   26   27 2
    42   26   28 1
@<TRIPOS>MOLECULE
ZINC49756463
   42    44     0     0     0
SMALL
USER_CHARGES

@<TRIPOS>ATOM
      1 C1         -0.1341    1.5719    0.1723 C.3       1 <0>        -0.1306
      2 C2         -0.1598    0.0425    0.1365 C.3       1 <0>         0.1049
      3 C3         -1.5735   -0.4405    0.3386 C.2       1 <0>         0.5001
      4 O1         -2.5084    0.2493   -0.0098 O.2       1 <0>        -0.5023
      5 N1         -1.7947   -1.6449    0.9088 N.am      1 <0>        -0.6583
      6 C4         -0.6976   -2.4074    1.3344 C.ar      1 <0>         0.1136
      7 C5         -0.8425   -3.7538    1.6223 C.ar      1 <0>        -0.1256
      8 C6          0.2565   -4.4910    2.0434 C.ar      1 <0>         0.1566
      9 C7          1.4960   -3.8781    2.1746 C.ar      1 <0>        -0.1339
     10 C8          1.6407   -2.5339    1.8863 C.ar      1 <0>        -0.0860
     11 C9          0.5482   -1.7954    1.4657 C.ar      1 <0>         0.0670
     12 O2          0.6769   -0.4721    1.1757 O.3       1 <0>        -0.2952
     13 N2          0.1149   -5.8526    2.3363 N.am      1 <0>        -0.6668
     14 C10        -0.7647   -6.6030    1.6437 C.2       1 <0>         0.5493
     15 O3         -1.3659   -6.1214    0.7012 O.2       1 <0>        -0.5223
     16 C11        -0.9971   -7.9967    2.0248 C.2       1 <0>        -0.2165
     17 C12        -1.8773   -8.7476    1.3317 C.2       1 <0>        -0.0060
     18 C13        -2.1110  -10.1490    1.7149 C.ar      1 <0>        -0.0778
     19 C14        -1.4263  -10.7040    2.8010 C.ar      1 <0>        -0.0869
     20 C15        -1.6505  -12.0172    3.1546 C.ar      1 <0>        -0.1124
     21 C16        -2.5512  -12.7872    2.4367 C.ar      1 <0>        -0.0225
     22 C17        -3.2330  -12.2441    1.3598 C.ar      1 <0>        -0.1124
     23 C18        -3.0231  -10.9306    0.9984 C.ar      1 <0>        -0.0787
     24 Cl1        -2.8264  -14.4407    2.8885 Cl        1 <0>        -0.0618
     25 C19         0.3550   -0.4440   -1.2197 C.3       1 <0>        -0.1720
     26 H1          0.8875    1.9217    0.0233 H         1 <0>         0.0820
     27 H2         -0.7717    1.9646   -0.6197 H         1 <0>         0.0920
     28 H3         -0.4997    1.9189    1.1387 H         1 <0>         0.0713
     29 H4         -2.6989   -1.9772    1.0224 H         1 <0>         0.4167
     30 H5         -1.8070   -4.2290    1.5202 H         1 <0>         0.1454
     31 H6          2.3491   -4.4532    2.5032 H         1 <0>         0.1393
     32 H7          2.6057   -2.0600    1.9895 H         1 <0>         0.1458
     33 H8          0.6499   -6.2561    3.0377 H         1 <0>         0.4157
     34 H9         -0.4637   -8.4240    2.8611 H         1 <0>         0.1350
     35 H10        -2.4107   -8.3203    0.4954 H         1 <0>         0.1408
     36 H11        -0.7233  -10.1051    3.3610 H         1 <0>         0.1381
     37 H12        -1.1225  -12.4471    3.9929 H         1 <0>         0.1390
     38 H13        -3.9334  -12.8503    0.8045 H         1 <0>         0.1396
     39 H14        -3.5585  -10.5073    0.1615 H         1 <0>         0.1400
     40 H15         1.3767   -0.0939   -1.3674 H         1 <0>         0.0875
     41 H16         0.3369   -1.5335   -1.2457 H         1 <0>         0.0658
     42 H17        -0.2818   -0.0510   -2.0123 H         1 <0>         0.0827
@<TRIPOS>BOND
     1    1    2 1
     2    1   26 1
     3    1   27 1
     4    1   28 1
     5    2   12 1
     6    2    3 1
     7    2   25 1
     8    3    4 2
     9    3    5 am
    10    5    6 1
    11    5   29 1
    12    6   11 ar
    13    6    7 ar
    14    7    8 ar
    15    7   30 1
    16    8    9 ar
    17    8   13 1
    18    9   10 ar
    19    9   31 1
    20   10   11 ar
    21   10   32 1
    22   11   12 1
    23   13   14 am
    24   13   33 1
    25   14   15 2
    26   14   16 1
    27   16   17 2
    28   16   34 1
    29   17   18 1
    30   17   35 1
    31   18   23 ar
    32   18   19 ar
    33   19   20 ar
    34   19   36 1
    35   20   21 ar
    36   20   37 1
    37   21   22 ar
    38   21   24 1
    39   22   23 ar
    40   22   38 1
    41   23   39 1
    42   25   40 1
    43   25   41 1
    44   25   42 1
@<TRIPOS>MOLECULE
ZINC61692388
   29    31     0     0     0
SMALL
USER_CHARGES

@<TRIPOS>ATOM
      1 C1         -0.0238    1.3674   -0.1456 C.ar      1 <0>        -0.0266
      2 C2          0.9342    1.6507   -1.0997 C.ar      1 <0>        -0.1850
      3 C3          2.1499    0.9822   -1.0842 C.ar      1 <0>         0.2797
      4 C4          2.4011    0.0194   -0.0966 C.ar      1 <0>        -0.1297
      5 C5          1.4258   -0.2571    0.8613 C.ar      1 <0>        -0.0230
      6 C6          0.2211    0.4166    0.8317 C.ar      1 <0>        -0.0930
      7 Cl1        -0.9920    0.0708    2.0244 Cl        1 <0>        -0.0615
      8 C7          3.6923   -0.6991   -0.0709 C.2       1 <0>         0.3160
      9 N1          4.8921   -0.1605   -0.1529 N.2       1 <0>        -0.3192
     10 N2          5.7977   -1.0689   -0.0994 N.2       1 <0>        -0.0292
     11 N3          5.2634   -2.2357    0.0185 N.2       1 <0>        -0.0512
     12 N4          3.8705   -2.0468    0.0483 N.pl3     1 <0>        -0.3358
     13 C8          2.8793   -3.0302    0.1707 C.ar      1 <0>         0.1362
     14 C9          1.7972   -3.0392   -0.6989 C.ar      1 <0>        -0.0613
     15 C10         0.8217   -4.0104   -0.5760 C.ar      1 <0>        -0.0757
     16 C11         0.9226   -4.9734    0.4128 C.ar      1 <0>        -0.0579
     17 C12         1.9989   -4.9673    1.2803 C.ar      1 <0>        -0.0885
     18 C13         2.9806   -4.0015    1.1591 C.ar      1 <0>        -0.0084
     19 Cl2         4.3353   -3.9984    2.2448 Cl        1 <0>        -0.0226
     20 Br1        -0.6529   -4.0230   -1.7597 Br        1 <0>        -0.0126
     21 N5          3.1170    1.2662   -2.0467 N.pl3     1 <0>        -0.8541
     22 H1         -0.9671    1.8932   -0.1590 H         1 <0>         0.1438
     23 H2          0.7365    2.3931   -1.8587 H         1 <0>         0.1445
     24 H3          1.6124   -0.9978    1.6248 H         1 <0>         0.1323
     25 H4          1.7176   -2.2878   -1.4705 H         1 <0>         0.1507
     26 H5          0.1588   -5.7311    0.5070 H         1 <0>         0.1571
     27 H6          2.0749   -5.7201    2.0509 H         1 <0>         0.1605
     28 H7          2.9409    1.9325   -2.7293 H         1 <0>         0.4080
     29 H8          3.9662    0.7976   -2.0339 H         1 <0>         0.4068
@<TRIPOS>BOND
     1    1    6 ar
     2    1    2 ar
     3    1   22 1
     4    2    3 ar
     5    2   23 1
     6    3    4 ar
     7    3   21 1
     8    4    5 ar
     9    4    8 1
    10    5    6 ar
    11    5   24 1
    12    6    7 1
    13    8   12 1
    14    8    9 2
    15    9   10 1
    16   10   11 2
    17   11   12 1
    18   12   13 1
    19   13   18 ar
    20   13   14 ar
    21   14   15 ar
    22   14   25 1
    23   15   16 ar
    24   15   20 1
    25   16   17 ar
    26   16   26 1
    27   17   18 ar
    28   17   27 1
    29   18   19 1
    30   21   28 1
    31   21   29 1
@<TRIPOS>MOLECULE
ZINC34812522
   48    51     0     0     0
SMALL
USER_CHARGES

@<TRIPOS>ATOM
      1 C1          0.8250    1.6988    0.5711 C.3       1 <0>        -0.1192
      2 C2          0.6263    0.2176    0.3777 C.ar      1 <0>        -0.0913
      3 C3          0.6343   -0.3179   -0.8981 C.ar      1 <0>        -0.0698
      4 C4          0.4646   -1.6777   -1.0842 C.ar      1 <0>        -0.1205
      5 C5          0.2797   -2.5106    0.0069 C.ar      1 <0>         0.1336
      6 C6          0.2499   -1.9717    1.2973 C.ar      1 <0>        -0.1568
      7 C7          0.4427   -0.5999    1.4740 C.ar      1 <0>        -0.0851
      8 C8         -0.0098   -2.8321    2.4619 C.2       1 <0>         0.4893
      9 N1          0.4393   -4.0289    2.6198 N.2       1 <0>        -0.5668
     10 C9          1.2503   -4.7176    1.7682 C.ar      1 <0>         0.1157
     11 C10         2.2758   -5.5055    2.3003 C.ar      1 <0>        -0.0976
     12 C11         3.0933   -6.2378    1.4635 C.ar      1 <0>        -0.0672
     13 C12         2.9013   -6.1982    0.0950 C.ar      1 <0>        -0.1096
     14 C13         1.8966   -5.4131   -0.4433 C.ar      1 <0>        -0.1015
     15 C14         1.0786   -4.6615    0.3838 C.ar      1 <0>         0.0411
     16 O1          0.1473   -3.8472   -0.1765 O.3       1 <0>        -0.2641
     17 C15         4.1987   -7.0824    2.0430 C.3       1 <0>        -0.1188
     18 N2         -0.7974   -2.3155    3.4657 N.pl3     1 <0>        -0.6162
     19 C16        -1.4800   -1.0227    3.3020 C.3       1 <0>         0.0842
     20 C17        -2.9570   -1.2037    3.6674 C.3       1 <0>        -0.0220
     21 N3         -3.0602   -1.7771    5.0152 N.4       1 <0>        -0.5041
     22 C18        -2.4814   -3.1265    5.0302 C.3       1 <0>         0.0120
     23 H1         -2.9681   -3.7392    4.2714 H         1 <0>         0.1417
     24 C19        -0.9853   -3.0435    4.7302 C.3       1 <0>         0.1054
     25 C20        -2.6930   -3.7571    6.4080 C.3       1 <0>        -0.1800
     26 H2          1.8884    1.9116    0.6801 H         1 <0>         0.0791
     27 H3          0.4342    2.2339   -0.2944 H         1 <0>         0.0761
     28 H4          0.2960    2.0224    1.4675 H         1 <0>         0.0688
     29 H5          0.7732    0.3286   -1.7520 H         1 <0>         0.1428
     30 H6          0.4767   -2.0909   -2.0819 H         1 <0>         0.1454
     31 H7          0.4442   -0.1784    2.4683 H         1 <0>         0.1351
     32 H8          2.4287   -5.5408    3.3689 H         1 <0>         0.1334
     33 H9          3.5368   -6.7809   -0.5553 H         1 <0>         0.1374
     34 H10         1.7504   -5.3858   -1.5130 H         1 <0>         0.1370
     35 H11         3.8204   -8.0834    2.2505 H         1 <0>         0.0781
     36 H12         5.0202   -7.1452    1.3294 H         1 <0>         0.0735
     37 H13         4.5549   -6.6296    2.9683 H         1 <0>         0.0699
     38 H14        -1.0272   -0.2833    3.9626 H         1 <0>         0.0974
     39 H15        -1.3966   -0.6930    2.2665 H         1 <0>         0.1379
     40 H16        -3.4582   -0.2360    3.6448 H         1 <0>         0.1483
     41 H17        -3.4294   -1.8745    2.9498 H         1 <0>         0.1352
     42 H18        -2.5612   -1.1912    5.6677 H         1 <0>         0.4260
     43 H19        -0.5749   -4.0491    4.6383 H         1 <0>         0.1428
     44 H20        -0.4817   -2.5116    5.5374 H         1 <0>         0.0906
     45 H21        -3.7605   -3.8174    6.6199 H         1 <0>         0.0867
     46 H22        -2.2633   -4.7588    6.4190 H         1 <0>         0.1103
     47 H23        -2.2060   -3.1445    7.1667 H         1 <0>         0.0842
     48 H24        -4.0311   -1.8260    5.2852 H         1 <0>         0.4316
@<TRIPOS>BOND
     1    1    2 1
     2    1   26 1
     3    1   27 1
     4    1   28 1
     5    2    7 ar
     6    2    3 ar
     7    3    4 ar
     8    3   29 1
     9    4    5 ar
    10    4   30 1
    11    5   16 1
    12    5    6 ar
    13    6    7 ar
    14    6    8 1
    15    7   31 1
    16    8    9 2
    17    8   18 1
    18    9   10 1
    19   10   15 ar
    20   10   11 ar
    21   11   12 ar
    22   11   32 1
    23   12   13 ar
    24   12   17 1
    25   13   14 ar
    26   13   33 1
    27   14   15 ar
    28   14   34 1
    29   15   16 1
    30   17   35 1
    31   17   36 1
    32   17   37 1
    33   18   24 1
    34   18   19 1
    35   19   20 1
    36   19   38 1
    37   19   39 1
    38   20   21 1
    39   20   40 1
    40   20   41 1
    41   21   22 1
    42   21   42 1
    43   21   48 1
    44   22   23 1
    45   22   24 1
    46   22   25 1
    47   24   43 1
    48   24   44 1
    49   25   45 1
    50   25   46 1
    51   25   47 1
@<TRIPOS>MOLECULE
ZINC39732599
   47    50     0     0     0
SMALL
USER_CHARGES

@<TRIPOS>ATOM
      1 C1          0.2544    3.8149   -1.3383 C.3       1 <0>        -0.1635
      2 C2          0.3724    2.7668   -0.2299 C.3       1 <0>         0.1982
      3 C3          1.2537    3.3119    0.8957 C.3       1 <0>        -0.1666
      4 C4         -1.0190    2.4479    0.3206 C.3       1 <0>        -0.1591
      5 N1          0.9739    1.5467   -0.7737 N.pl3     1 <0>        -0.6220
      6 C5          0.3580    0.2153   -0.8052 C.3       1 <0>         0.3599
      7 N2          1.3434   -0.6669   -1.4415 N.pl3     1 <0>        -0.7500
      8 C6          2.4609    0.1182   -1.7561 C.ar      1 <0>         0.1406
      9 C7          2.2340    1.4397   -1.3615 C.ar      1 <0>         0.1527
     10 C8          3.2120    2.4103   -1.5799 C.ar      1 <0>        -0.1345
     11 C9          4.3999    2.0767   -2.1864 C.ar      1 <0>        -0.1127
     12 C10         4.6337    0.7531   -2.5890 C.ar      1 <0>         0.0016
     13 C11         3.6557   -0.2259   -2.3618 C.ar      1 <0>        -0.1648
     14 N3          5.7998    0.4215   -3.1858 N.2       1 <0>        -0.3456
     15 C12         5.9048    0.4695   -4.4927 C.2       1 <0>         0.1549
     16 C13         4.7684    0.7131   -5.2795 C.2       1 <0>         0.0512
     17 C14         4.7245    0.9084   -6.6557 C.ar      1 <0>        -0.1310
     18 C15         5.7278    0.9271   -7.6510 C.ar      1 <0>        -0.0265
     19 C16         5.3873    1.1467   -8.9449 C.ar      1 <0>        -0.1376
     20 C17         4.0581    1.3581   -9.3292 C.ar      1 <0>         0.0415
     21 C18         3.0449    1.3543   -8.4324 C.ar      1 <0>        -0.2010
     22 C19         3.3212    1.1303   -7.0549 C.ar      1 <0>         0.3092
     23 N4          2.5319    1.0793   -6.0066 N.pl3     1 <0>        -0.5811
     24 C20         3.3340    0.8118   -4.8089 C.3       1 <0>         0.0537
     25 H1          1.2457    4.0422   -1.7305 H         1 <0>         0.0607
     26 H2         -0.3734    3.4266   -2.1402 H         1 <0>         0.0596
     27 H3         -0.1931    4.7228   -0.9337 H         1 <0>         0.0767
     28 H4          0.8062    4.2197    1.3003 H         1 <0>         0.0759
     29 H5          1.3378    2.5652    1.6853 H         1 <0>         0.0638
     30 H6          2.2449    3.5391    0.5035 H         1 <0>         0.0627
     31 H7         -1.6468    2.0595   -0.4813 H         1 <0>         0.0642
     32 H8         -0.9349    1.7012    1.1102 H         1 <0>         0.0665
     33 H9         -1.4665    3.3557    0.7252 H         1 <0>         0.0820
     34 H10         0.1474   -0.1256    0.2085 H         1 <0>         0.0655
     35 H11        -0.5598    0.2394   -1.3927 H         1 <0>         0.0647
     36 H12         1.2404   -1.6162   -1.6124 H         1 <0>         0.4308
     37 H13         3.0348    3.4299   -1.2711 H         1 <0>         0.1374
     38 H14         5.1526    2.8331   -2.3532 H         1 <0>         0.1380
     39 H15         3.8304   -1.2458   -2.6711 H         1 <0>         0.1323
     40 H16         6.8656    0.3215   -4.9631 H         1 <0>         0.2002
     41 H17         6.7615    0.7675   -7.3819 H         1 <0>         0.1621
     42 H18         6.1613    1.1590   -9.6980 H         1 <0>         0.1580
     43 H19         3.8348    1.5297  -10.3719 H         1 <0>         0.1615
     44 H20         2.0297    1.5210   -8.7612 H         1 <0>         0.1601
     45 H21         3.0245   -0.1268   -4.3491 H         1 <0>         0.1797
     46 H22         3.2278    1.6314   -4.0982 H         1 <0>         0.1778
     47 H23         1.5692    1.1964   -6.0228 H         1 <0>         0.4521
@<TRIPOS>BOND
     1    1    2 1
     2    1   25 1
     3    1   26 1
     4    1   27 1
     5    2    3 1
     6    2    4 1
     7    2    5 1
     8    3   28 1
     9    3   29 1
    10    3   30 1
    11    4   31 1
    12    4   32 1
    13    4   33 1
    14    5    9 1
    15    5    6 1
    16    6    7 1
    17    6   34 1
    18    6   35 1
    19    7    8 1
    20    7   36 1
    21    8   13 ar
    22    8    9 ar
    23    9   10 ar
    24   10   11 ar
    25   10   37 1
    26   11   12 ar
    27   11   38 1
    28   12   13 ar
    29   12   14 1
    30   13   39 1
    31   14   15 2
    32   15   16 1
    33   15   40 1
    34   16   24 1
    35   16   17 2
    36   17   22 ar
    37   17   18 ar
    38   18   19 ar
    39   18   41 1
    40   19   20 ar
    41   19   42 1
    42   20   21 ar
    43   20   43 1
    44   21   22 ar
    45   21   44 1
    46   22   23 2
    47   23   24 1
    48   23   47 1
    49   24   45 1
    50   24   46 1
@<TRIPOS>MOLECULE
ZINC49964210
   42    43     0     0     0
SMALL
USER_CHARGES

@<TRIPOS>ATOM
      1 C1         -0.0187    1.5258    0.0104 C.3       1 <0>        -0.1555
      2 C2          0.0021   -0.0041    0.0020 C.3       1 <0>        -0.1004
      3 H1         -1.0205   -0.3814    0.0098 H         1 <0>         0.0891
      4 C3          0.7182   -0.4975   -1.2568 C.3       1 <0>        -0.1127
      5 C4          2.1536    0.0321   -1.2676 C.3       1 <0>        -0.1419
      6 C5          2.8936   -0.4747   -0.0281 C.3       1 <0>         0.0291
      7 H2          2.9084   -1.5646   -0.0341 H         1 <0>         0.1436
      8 C6          2.1775    0.0187    1.2307 C.3       1 <0>        -0.1050
      9 H3          2.1627    1.1086    1.2367 H         1 <0>         0.1048
     10 C7          0.7421   -0.5109    1.2415 C.3       1 <0>        -0.1172
     11 C8          2.9174   -0.4882    2.4702 C.3       1 <0>        -0.1004
     12 C9          2.2858    0.0974    3.7068 C.ar      1 <0>        -0.0359
     13 C10         2.8036    1.2497    4.2681 C.ar      1 <0>        -0.1033
     14 C11         2.2247    1.7867    5.4026 C.ar      1 <0>        -0.0440
     15 C12         1.1274    1.1717    5.9767 C.ar      1 <0>        -0.0296
     16 C13         0.6086    0.0200    5.4162 C.ar      1 <0>        -0.0416
     17 C14         1.1843   -0.5149    4.2772 C.ar      1 <0>        -0.0370
     18 Cl1         0.5288   -1.9576    3.5684 Cl        1 <0>        -0.0243
     19 N1          0.5087    1.7467    7.1920 N.pl3     1 <0>         0.0249
     20 O1          0.9627    2.7541    7.6826 O.2       1 <0>        -0.1385
     21 O2         -0.4507    1.2091    7.6941 O.3       1 <0>        -0.1391
     22 N2          4.2717    0.0337   -0.0385 N.4       1 <0>        -0.5116
     23 C15         4.9952   -0.5360   -1.1831 C.3       1 <0>        -0.0519
     24 H4          1.0039    1.9031    0.0027 H         1 <0>         0.0513
     25 H5         -0.5459    1.8868   -0.8726 H         1 <0>         0.0640
     26 H6         -0.5289    1.8773    0.9072 H         1 <0>         0.0606
     27 H7          0.7330   -1.5874   -1.2628 H         1 <0>         0.0758
     28 H8          0.1910   -0.1364   -2.1398 H         1 <0>         0.0867
     29 H9          2.6638   -0.3194   -2.1644 H         1 <0>         0.0907
     30 H10         2.1388    1.1220   -1.2617 H         1 <0>         0.0912
     31 H11         0.2319   -0.1594    2.1383 H         1 <0>         0.0877
     32 H12         0.7568   -1.6008    1.2356 H         1 <0>         0.0823
     33 H13         2.8557   -1.5756    2.5109 H         1 <0>         0.1051
     34 H14         3.9632   -0.1853    2.4182 H         1 <0>         0.0790
     35 H15         3.6608    1.7303    3.8203 H         1 <0>         0.1554
     36 H16         2.6297    2.6867    5.8409 H         1 <0>         0.1656
     37 H17        -0.2482   -0.4605    5.8649 H         1 <0>         0.1694
     38 H18         4.2585    1.0397   -0.1159 H         1 <0>         0.4280
     39 H19         5.0095   -1.6227   -1.0995 H         1 <0>         0.1251
     40 H20         4.4952   -0.2493   -2.1082 H         1 <0>         0.1265
     41 H21         6.0178   -0.1587   -1.1908 H         1 <0>         0.1283
     42 H22         4.7346   -0.2317    0.8178 H         1 <0>         0.4260
@<TRIPOS>BOND
     1    1    2 1
     2    1   24 1
     3    1   25 1
     4    1   26 1
     5    2    3 1
     6    2   10 1
     7    2    4 1
     8    4    5 1
     9    4   27 1
    10    4   28 1
    11    5    6 1
    12    5   29 1
    13    5   30 1
    14    6    7 1
    15    6    8 1
    16    6   22 1
    17    8    9 1
    18    8   10 1
    19    8   11 1
    20   10   31 1
    21   10   32 1
    22   11   12 1
    23   11   33 1
    24   11   34 1
    25   12   17 ar
    26   12   13 ar
    27   13   14 ar
    28   13   35 1
    29   14   15 ar
    30   14   36 1
    31   15   16 ar
    32   15   19 1
    33   16   17 ar
    34   16   37 1
    35   17   18 1
    36   19   20 2
    37   19   21 1
    38   22   23 1
    39   22   38 1
    40   22   42 1
    41   23   39 1
    42   23   40 1
    43   23   41 1
@<TRIPOS>MOLECULE
ZINC50893618
   54    56     0     0     0
SMALL
USER_CHARGES

@<TRIPOS>ATOM
      1 C1         -3.3102    1.3938    1.3236 C.3       1 <0>        -0.1585
      2 C2         -3.5117   -0.1146    1.1656 C.3       1 <0>        -0.1268
      3 C3         -3.1359   -0.5331   -0.2573 C.3       1 <0>        -0.1170
      4 C4         -3.3373   -2.0415   -0.4153 C.3       1 <0>        -0.1009
      5 C5         -2.3524   -2.7872    0.4897 C.3       1 <0>        -0.1434
      6 C6         -2.5046   -4.2936    0.2679 C.3       1 <0>        -0.0099
      7 N1         -2.2220   -4.6162   -1.1358 N.4       1 <0>        -0.3818
      8 C7         -3.2069   -3.9617   -2.0053 C.3       1 <0>        -0.0205
      9 C8         -3.0818   -2.4425   -1.8710 C.3       1 <0>        -0.1401
     10 C9         -2.2931   -6.0710   -1.3263 C.3       1 <0>         0.0278
     11 H1         -1.6256   -6.5631   -0.6189 H         1 <0>         0.1564
     12 C10        -3.7279   -6.5470   -1.0894 C.3       1 <0>        -0.1411
     13 C11        -3.8023   -8.0611   -1.2934 C.3       1 <0>         0.2665
     14 C12        -3.3738   -8.4141   -2.7187 C.3       1 <0>        -0.1454
     15 C13        -1.9395   -7.9352   -2.9526 C.3       1 <0>        -0.1002
     16 C14        -1.8694   -6.4197   -2.7545 C.3       1 <0>         0.0698
     17 H2         -2.5384   -5.9296   -3.4617 H         1 <0>         0.0713
     18 N2         -0.4932   -5.9593   -2.9830 N.3       1 <0>        -0.6822
     19 C15        -0.2601   -5.6834   -4.4069 C.3       1 <0>         0.0195
     20 O1         -5.1503   -8.5079   -1.0747 O.3       1 <0>        -0.3655
     21 C16        -5.0125   -9.8044   -0.4447 C.3       1 <0>         0.0154
     22 C17        -3.7611   -9.5914    0.4434 C.3       1 <0>         0.0197
     23 O2         -2.9392   -8.7162   -0.3553 O.3       1 <0>        -0.3752
     24 H3         -3.5780    1.6919    2.3373 H         1 <0>         0.0594
     25 H4         -2.2658    1.6425    1.1356 H         1 <0>         0.0558
     26 H5         -3.9435    1.9216    0.6104 H         1 <0>         0.0569
     27 H6         -2.8784   -0.6424    1.8787 H         1 <0>         0.0628
     28 H7         -4.5561   -0.3634    1.3535 H         1 <0>         0.0644
     29 H8         -3.7691   -0.0053   -0.9705 H         1 <0>         0.0739
     30 H9         -2.0914   -0.2843   -0.4453 H         1 <0>         0.0691
     31 H10        -4.3585   -2.3038   -0.1389 H         1 <0>         0.0901
     32 H11        -1.3339   -2.4846    0.2466 H         1 <0>         0.0890
     33 H12        -2.5644   -2.5495    1.5321 H         1 <0>         0.1161
     34 H13        -1.8049   -4.8276    0.9109 H         1 <0>         0.1332
     35 H14        -3.5233   -4.5952    0.5116 H         1 <0>         0.1303
     36 H15        -3.0258   -4.2506   -3.0406 H         1 <0>         0.1266
     37 H16        -4.2107   -4.2703   -1.7132 H         1 <0>         0.1343
     38 H17        -3.8151   -1.9585   -2.5160 H         1 <0>         0.1135
     39 H18        -2.0784   -2.1328   -2.1632 H         1 <0>         0.0874
     40 H19        -4.0285   -6.3023   -0.0707 H         1 <0>         0.1017
     41 H20        -4.3960   -6.0521   -1.7943 H         1 <0>         0.1047
     42 H21        -3.4233   -9.4943   -2.8560 H         1 <0>         0.0904
     43 H22        -4.0404   -7.9263   -3.4299 H         1 <0>         0.0872
     44 H23        -1.2725   -8.4256   -2.2436 H         1 <0>         0.0929
     45 H24        -1.6349   -8.1832   -3.9694 H         1 <0>         0.0892
     46 H25        -0.2846   -5.1492   -2.4189 H         1 <0>         0.3234
     47 H26         0.7662   -5.3443   -4.5480 H         1 <0>         0.0849
     48 H27        -0.4249   -6.5927   -4.9850 H         1 <0>         0.0813
     49 H28        -0.9484   -4.9086   -4.7444 H         1 <0>         0.0310
     50 H29        -5.8869  -10.0380    0.1627 H         1 <0>         0.1189
     51 H30        -4.8361  -10.5824   -1.1875 H         1 <0>         0.0850
     52 H31        -4.0333   -9.1123    1.3838 H         1 <0>         0.0821
     53 H32        -3.2522  -10.5380    0.6252 H         1 <0>         0.1104
     54 H33        -1.2966   -4.2926   -1.3745 H         1 <0>         0.4163
@<TRIPOS>BOND
     1    1    2 1
     2    1   24 1
     3    1   25 1
     4    1   26 1
     5    2    3 1
     6    2   27 1
     7    2   28 1
     8    3    4 1
     9    3   29 1
    10    3   30 1
    11    4    9 1
    12    4    5 1
    13    4   31 1
    14    5    6 1
    15    5   32 1
    16    5   33 1
    17    6    7 1
    18    6   34 1
    19    6   35 1
    20    7    8 1
    21    7   10 1
    22    7   54 1
    23    8    9 1
    24    8   36 1
    25    8   37 1
    26    9   38 1
    27    9   39 1
    28   10   11 1
    29   10   16 1
    30   10   12 1
    31   12   13 1
    32   12   40 1
    33   12   41 1
    34   13   23 1
    35   13   14 1
    36   13   20 1
    37   14   15 1
    38   14   42 1
    39   14   43 1
    40   15   16 1
    41   15   44 1
    42   15   45 1
    43   16   17 1
    44   16   18 1
    45   18   19 1
    46   18   46 1
    47   19   47 1
    48   19   48 1
    49   19   49 1
    50   20   21 1
    51   21   22 1
    52   21   50 1
    53   21   51 1
    54   22   23 1
    55   22   52 1
    56   22   53 1
@<TRIPOS>MOLECULE
ZINC65440463
   46    47     0     0     0
SMALL
USER_CHARGES

@<TRIPOS>ATOM
      1 C1          0.1351   -2.1222   -4.5136 C.3       1 <0>        -0.1510
      2 C2         -0.5711   -2.2456   -3.1619 C.3       1 <0>        -0.1357
      3 C3         -1.0183   -0.8600   -2.6918 C.3       1 <0>         0.2135
      4 H1         -1.6340   -0.3909   -3.4592 H         1 <0>         0.0788
      5 C4         -1.8152   -0.9861   -1.3946 C.2       1 <0>        -0.1518
      6 C5         -3.1158   -1.4849   -1.3428 C.2       1 <0>        -0.1524
      7 C6         -3.7603   -1.5720   -0.1567 C.2       1 <0>        -0.1686
      8 S1         -2.5332   -0.9376    0.9761 S.3       1 <0>         0.0702
      9 C7         -1.2604   -0.6029   -0.2127 C.2       1 <0>        -0.1336
     10 C8          0.1003   -0.0314    0.0205 C.3       1 <0>        -0.0617
     11 C9          0.9665   -0.3002   -1.2198 C.3       1 <0>         0.1323
     12 N1          0.1582   -0.0238   -2.4179 N.am      1 <0>        -0.6150
     13 C10         0.4909    0.9818   -3.2513 C.2       1 <0>         0.7159
     14 O1          1.4110    1.7253   -2.9701 O.2       1 <0>        -0.5663
     15 N2         -0.1961    1.1632   -4.3965 N.am      1 <0>        -0.7682
     16 C11         0.2327    2.1858   -5.3538 C.3       1 <0>         0.1132
     17 C12        -0.7836    2.2751   -6.4941 C.3       1 <0>         0.0130
     18 H2         -0.7911    1.3366   -7.0484 H         1 <0>         0.1453
     19 C13        -0.3968    3.4191   -7.4335 C.3       1 <0>        -0.1824
     20 N3         -2.1205    2.5273   -5.9399 N.4       1 <0>        -0.3872
     21 C14        -2.1482    3.8555   -5.3131 C.3       1 <0>        -0.0598
     22 C15        -3.1158    2.4742   -7.0190 C.3       1 <0>        -0.0534
     23 H3         -0.5514   -1.6946   -5.2444 H         1 <0>         0.0458
     24 H4          1.0059   -1.4748   -4.4108 H         1 <0>         0.0562
     25 H5          0.4537   -3.1093   -4.8485 H         1 <0>         0.0662
     26 H6         -1.4419   -2.8930   -3.2646 H         1 <0>         0.0820
     27 H7          0.1154   -2.6732   -2.4311 H         1 <0>         0.0778
     28 H8         -3.6091   -1.8016   -2.2499 H         1 <0>         0.1308
     29 H9         -4.7574   -1.9310    0.0513 H         1 <0>         0.1901
     30 H10         0.0221    1.0431    0.1859 H         1 <0>         0.0920
     31 H11         0.5518   -0.5059    0.8917 H         1 <0>         0.1004
     32 H12         1.8391    0.3529   -1.2070 H         1 <0>         0.1101
     33 H13         1.2868   -1.3421   -1.2254 H         1 <0>         0.0829
     34 H14        -0.9746    0.6166   -4.5868 H         1 <0>         0.3884
     35 H15         0.2991    3.1501   -4.8500 H         1 <0>         0.0991
     36 H16         1.2093    1.9188   -5.7576 H         1 <0>         0.1122
     37 H17         0.5951    3.2320   -7.8447 H         1 <0>         0.1115
     38 H18        -1.1208    3.4827   -8.2459 H         1 <0>         0.0898
     39 H19        -0.3893    4.3577   -6.8793 H         1 <0>         0.0889
     40 H20        -1.9153    4.6146   -6.0599 H         1 <0>         0.1305
     41 H21        -3.1401    4.0426   -4.9019 H         1 <0>         0.1268
     42 H22        -1.4096    3.8949   -4.5124 H         1 <0>         0.1252
     43 H23        -3.1495    1.4664   -7.4329 H         1 <0>         0.1245
     44 H24        -4.0964    2.7369   -6.6220 H         1 <0>         0.1272
     45 H25        -2.8402    3.1798   -7.8026 H         1 <0>         0.1277
     46 H26        -2.3360    1.8246   -5.2486 H         1 <0>         0.4188
@<TRIPOS>BOND
     1    1    2 1
     2    1   23 1
     3    1   24 1
     4    1   25 1
     5    2    3 1
     6    2   26 1
     7    2   27 1
     8    3    4 1
     9    3   12 1
    10    3    5 1
    11    5    9 2
    12    5    6 1
    13    6    7 2
    14    6   28 1
    15    7    8 1
    16    7   29 1
    17    8    9 1
    18    9   10 1
    19   10   11 1
    20   10   30 1
    21   10   31 1
    22   11   12 1
    23   11   32 1
    24   11   33 1
    25   12   13 am
    26   13   14 2
    27   13   15 am
    28   15   16 1
    29   15   34 1
    30   16   17 1
    31   16   35 1
    32   16   36 1
    33   17   18 1
    34   17   19 1
    35   17   20 1
    36   19   37 1
    37   19   38 1
    38   19   39 1
    39   20   21 1
    40   20   22 1
    41   20   46 1
    42   21   40 1
    43   21   41 1
    44   21   42 1
    45   22   43 1
    46   22   44 1
    47   22   45 1
@<TRIPOS>MOLECULE
ZINC09522319
   46    49     0     0     0
SMALL
USER_CHARGES
3-[2-(1,3-dioxan-2-yl)ethylsulfanyl]-9-(o-tolyl)-2,4,8,9-tetrazabicyclo[4.3.0]nona-1,3,5,7-tetraen-5-ol
@<TRIPOS>ATOM
      1 C1         12.7483    0.2749   -6.0037 C.3       1 <0>        -0.1134
      2 C2         11.6213   -0.5077   -6.6269 C.ar      1 <0>        -0.0823
      3 C3         11.7241   -0.9475   -7.9323 C.ar      1 <0>        -0.1038
      4 C4         10.6879   -1.6602   -8.5068 C.ar      1 <0>        -0.1191
      5 C5          9.5481   -1.9401   -7.7752 C.ar      1 <0>        -0.1017
      6 C6          9.4416   -1.5082   -6.4679 C.ar      1 <0>        -0.1272
      7 C7         10.4807   -0.7920   -5.8879 C.ar      1 <0>         0.1458
      8 N1         10.3758   -0.3525   -4.5623 N.pl3     1 <0>        -0.3167
      9 C8          9.2662   -0.4509   -3.7712 C.ar      1 <0>         0.3695
     10 C9          9.6097    0.1148   -2.5268 C.ar      1 <0>        -0.3035
     11 C10        10.9524    0.5429   -2.6241 C.2       1 <0>         0.1166
     12 N2         11.3901    0.2644   -3.8191 N.2       1 <0>        -0.2309
     13 C11         8.6352    0.1433   -1.5126 C.ar      1 <0>         0.4735
     14 N3          7.4377   -0.3625   -1.7707 N.ar      1 <0>        -0.5656
     15 C12         7.1543   -0.8870   -2.9583 C.ar      1 <0>         0.3645
     16 N4          8.0403   -0.9400   -3.9393 N.ar      1 <0>        -0.5202
     17 S1          5.5420   -1.5421   -3.2341 S.3       1 <0>         0.0445
     18 C13         4.7915   -1.2204   -1.6187 C.3       1 <0>        -0.1105
     19 C14         3.3452   -1.7195   -1.6199 C.3       1 <0>        -0.0943
     20 C15         2.7108   -1.4476   -0.2544 C.3       1 <0>         0.2558
     21 O1          1.4000   -2.0171   -0.2161 O.3       1 <0>        -0.3909
     22 C16         0.7092   -1.7920    1.0167 C.3       1 <0>         0.0575
     23 C17         0.6093   -0.2826    1.2627 C.3       1 <0>        -0.1945
     24 C18         2.0160    0.3229    1.2027 C.3       1 <0>         0.0567
     25 O2          2.6237   -0.0365   -0.0419 O.3       1 <0>        -0.3888
     26 O3          8.9147    0.6751   -0.2996 O.3       1 <0>        -0.4658
     27 H1         13.3865   -0.3993   -5.4324 H         1 <0>         0.0729
     28 H2         13.3352    0.7537   -6.7876 H         1 <0>         0.0623
     29 H3         12.3385    1.0365   -5.3402 H         1 <0>         0.0881
     30 H4         12.6130   -0.7309   -8.5061 H         1 <0>         0.1327
     31 H5         10.7690   -1.9995   -9.5290 H         1 <0>         0.1300
     32 H6          8.7403   -2.4967   -8.2269 H         1 <0>         0.1340
     33 H7          8.5514   -1.7273   -5.8970 H         1 <0>         0.1525
     34 H8         11.5205    1.0210   -1.8398 H         1 <0>         0.2099
     35 H9          4.8060   -0.1491   -1.4182 H         1 <0>         0.1102
     36 H10         5.3554   -1.7423   -0.8457 H         1 <0>         0.0993
     37 H11         3.3307   -2.7908   -1.8204 H         1 <0>         0.0981
     38 H12         2.7813   -1.1976   -2.3929 H         1 <0>         0.0931
     39 H13         3.3245   -1.8955    0.5271 H         1 <0>         0.0603
     40 H14         1.2591   -2.2593    1.8337 H         1 <0>         0.0552
     41 H15        -0.2918   -2.2194    0.9592 H         1 <0>         0.1023
     42 H16        -0.0169    0.1718    0.4950 H         1 <0>         0.0836
     43 H17         0.1751   -0.1007    2.2458 H         1 <0>         0.0869
     44 H18         1.9494    1.4084    1.2763 H         1 <0>         0.1016
     45 H19         2.6154   -0.0642    2.0267 H         1 <0>         0.0551
     46 H20         9.2687    0.0388    0.3367 H         1 <0>         0.4167
@<TRIPOS>BOND
     1    1    2 1
     2    1   27 1
     3    1   28 1
     4    1   29 1
     5    2    7 ar
     6    2    3 ar
     7    3    4 ar
     8    3   30 1
     9    4    5 ar
    10    4   31 1
    11    5    6 ar
    12    5   32 1
    13    6    7 ar
    14    6   33 1
    15    7    8 1
    16    8   12 1
    17    8    9 1
    18    9   16 ar
    19    9   10 ar
    20   10   11 1
    21   10   13 ar
    22   11   12 2
    23   11   34 1
    24   13   14 ar
    25   13   26 1
    26   14   15 ar
    27   15   16 ar
    28   15   17 1
    29   17   18 1
    30   18   19 1
    31   18   35 1
    32   18   36 1
    33   19   20 1
    34   19   37 1
    35   19   38 1
    36   20   25 1
    37   20   21 1
    38   20   39 1
    39   21   22 1
    40   22   23 1
    41   22   40 1
    42   22   41 1
    43   23   24 1
    44   23   42 1
    45   23   43 1
    46   24   25 1
    47   24   44 1
    48   24   45 1
    49   26   46 1
@<TRIPOS>MOLECULE
ZINC21575535
   44    46     0     0     0
SMALL
USER_CHARGES
(2R)-N-(2-chloro-4,6-dimethyl-phenyl)-2-[4-(tetrazol-1-yl)phenoxy]propanamide
@<TRIPOS>ATOM
      1 C1          1.0294    3.6087    0.2380 C.3       1 <0>        -0.1186
      2 C2          1.0777    2.1040    0.1702 C.ar      1 <0>        -0.0714
      3 C3          1.7095    1.3883    1.1708 C.ar      1 <0>        -0.1077
      4 C4          1.7558    0.0091    1.1121 C.ar      1 <0>        -0.0799
      5 C5          1.1671   -0.6594    0.0470 C.ar      1 <0>         0.1430
      6 C6          0.5329    0.0622   -0.9570 C.ar      1 <0>        -0.0212
      7 C7          0.4902    1.4423   -0.8921 C.ar      1 <0>        -0.1088
      8 Cl1        -0.2053   -0.7685   -2.2907 Cl        1 <0>        -0.0455
      9 N1          1.2120   -2.0570   -0.0151 N.am      1 <0>        -0.6837
     10 C8          0.0766   -2.7604   -0.1952 C.2       1 <0>         0.5152
     11 O1         -0.9686   -2.1816   -0.4042 O.2       1 <0>        -0.4788
     12 C9          0.1056   -4.2660   -0.1369 C.3       1 <0>         0.0678
     13 H1          0.8005   -4.6662   -0.8899 H         1 <0>         0.1038
     14 C10         0.4833   -4.7145    1.2762 C.3       1 <0>        -0.1771
     15 O2         -1.1850   -4.7806   -0.4711 O.3       1 <0>        -0.2810
     16 C11        -1.2389   -6.0565   -0.9368 C.ar      1 <0>         0.1470
     17 C12        -2.4664   -6.6473   -1.2003 C.ar      1 <0>        -0.1230
     18 C13        -2.5214   -7.9412   -1.6787 C.ar      1 <0>        -0.0754
     19 C14        -1.3489   -8.6551   -1.8852 C.ar      1 <0>         0.0872
     20 C15        -0.1212   -8.0656   -1.6160 C.ar      1 <0>        -0.0548
     21 C16        -0.0668   -6.7697   -1.1430 C.ar      1 <0>        -0.1942
     22 N2         -1.4046   -9.9726   -2.3656 N.pl3     1 <0>        -0.3218
     23 C17        -2.5084  -10.6868   -2.6744 C.2       1 <0>         0.2238
     24 N3         -2.1084  -11.8627   -3.0828 N.2       1 <0>        -0.3276
     25 N4         -0.8268  -11.9405   -3.0532 N.2       1 <0>        -0.0330
     26 N5         -0.3230  -10.8299   -2.6342 N.2       1 <0>        -0.0795
     27 C18         2.4451   -0.7694    2.2029 C.3       1 <0>        -0.1159
     28 H2          1.5453    3.9515    1.1471 H         1 <0>         0.0701
     29 H3         -0.0189    3.9411    0.2638 H         1 <0>         0.0745
     30 H4          1.5266    4.0318   -0.6474 H         1 <0>         0.0745
     31 H5          2.1677    1.9085    1.9990 H         1 <0>         0.1332
     32 H6          0.0015    2.0044   -1.6741 H         1 <0>         0.1359
     33 H7          2.1740   -2.5813    0.0831 H         1 <0>         0.4341
     34 H8          0.5045   -5.8135    1.3187 H         1 <0>         0.0798
     35 H9         -0.2598   -4.3341    1.9925 H         1 <0>         0.0803
     36 H10         1.4768   -4.3184    1.5333 H         1 <0>         0.0831
     37 H11        -3.3787   -6.0933   -1.0355 H         1 <0>         0.1508
     38 H12        -3.4767   -8.3995   -1.8880 H         1 <0>         0.1448
     39 H13         0.7912   -8.6208   -1.7762 H         1 <0>         0.1464
     40 H14         0.8883   -6.3112   -0.9332 H         1 <0>         0.1451
     41 H15        -3.5315  -10.3494   -2.5979 H         1 <0>         0.2396
     42 H16         2.3788   -1.8453    1.9835 H         1 <0>         0.0654
     43 H17         1.9573   -0.5609    3.1665 H         1 <0>         0.0768
     44 H18         3.5024   -0.4702    2.2548 H         1 <0>         0.0768
@<TRIPOS>BOND
     1    1    2 1
     2    1   28 1
     3    1   29 1
     4    1   30 1
     5    2    7 ar
     6    2    3 ar
     7    3    4 ar
     8    3   31 1
     9    4    5 ar
    10    4   27 1
    11    5    6 ar
    12    5    9 1
    13    6    7 ar
    14    6    8 1
    15    7   32 1
    16    9   10 am
    17    9   33 1
    18   10   11 2
    19   10   12 1
    20   12   13 1
    21   12   14 1
    22   12   15 1
    23   14   34 1
    24   14   35 1
    25   14   36 1
    26   15   16 1
    27   16   21 ar
    28   16   17 ar
    29   17   18 ar
    30   17   37 1
    31   18   19 ar
    32   18   38 1
    33   19   20 ar
    34   19   22 1
    35   20   21 ar
    36   20   39 1
    37   21   40 1
    38   22   26 1
    39   22   23 1
    40   23   24 2
    41   23   41 1
    42   24   25 1
    43   25   26 2
    44   27   42 1
    45   27   43 1
    46   27   44 1
@<TRIPOS>MOLECULE
ZINC45154404
   56    58     0     0     0
SMALL
USER_CHARGES

@<TRIPOS>ATOM
      1 C1          2.9098   -1.2343   -0.7479 C.3       1 <0>        -0.1681
      2 C2          1.8812   -0.1599   -1.1064 C.3       1 <0>         0.1299
      3 N1          0.5544   -0.7712   -1.2157 N.am      1 <0>        -0.6296
      4 C3         -0.2677   -0.9566   -0.0173 C.3       1 <0>         0.0649
      5 C4         -0.6682    0.4097    0.5428 C.3       1 <0>        -0.1843
      6 C5          0.0900   -1.1630   -2.4187 C.2       1 <0>         0.7123
      7 O1          0.8582   -1.3036   -3.3506 O.2       1 <0>        -0.5805
      8 N2         -1.2260   -1.3990   -2.5888 N.am      1 <0>        -0.6265
      9 C6         -2.1960   -1.0054   -1.5572 C.3       1 <0>         0.0362
     10 C7         -3.2594   -0.1075   -2.2016 C.3       1 <0>         0.1155
     11 N3         -3.7502   -0.7627   -3.4222 N.am      1 <0>        -0.6267
     12 C8         -2.7803   -1.1563   -4.4537 C.3       1 <0>         0.0989
     13 C9         -1.7174   -2.0491   -3.8118 C.3       1 <0>         0.1147
     14 C10        -5.0662   -0.9987   -3.5923 C.2       1 <0>         0.7136
     15 O2         -5.8683   -0.5854   -2.7772 O.2       1 <0>        -0.5804
     16 N4         -5.4932   -1.6927   -4.6658 N.am      1 <0>        -0.7380
     17 C11        -6.9286   -1.8530   -4.9109 C.3       1 <0>         0.2936
     18 H1         -7.4522   -1.9406   -3.9589 H         1 <0>         0.1267
     19 C12        -7.1627   -3.0967   -5.7291 C.ar      1 <0>        -0.0996
     20 C13        -6.2999   -3.4183   -6.7602 C.ar      1 <0>        -0.1055
     21 C14        -6.5146   -4.5591   -7.5107 C.ar      1 <0>        -0.1155
     22 C15        -7.5918   -5.3786   -7.2299 C.ar      1 <0>        -0.1115
     23 C16        -8.4540   -5.0576   -6.1982 C.ar      1 <0>        -0.1152
     24 C17        -8.2369   -3.9190   -5.4449 C.ar      1 <0>        -0.0982
     25 C18        -7.4472   -0.6533   -5.6610 C.2       1 <0>        -0.0230
     26 C19        -8.6221   -0.0361   -5.4418 C.2       1 <0>        -0.1905
     27 C20        -8.7019    1.0323   -6.3644 C.2       1 <0>        -0.2118
     28 C21        -7.5709    1.0041   -7.0921 C.2       1 <0>        -0.0401
     29 O3         -6.8122   -0.0154   -6.6577 O.3       1 <0>        -0.1696
     30 H2          2.6409   -1.6915    0.2043 H         1 <0>         0.0536
     31 H3          2.9244   -1.9974   -1.5261 H         1 <0>         0.0614
     32 H4          3.8971   -0.7794   -0.6666 H         1 <0>         0.0655
     33 H5          1.8667    0.6032   -0.3282 H         1 <0>         0.0753
     34 H6          2.1502    0.2973   -2.0586 H         1 <0>         0.0821
     35 H7         -1.1641   -1.5205   -0.2753 H         1 <0>         0.1150
     36 H8          0.3025   -1.5041    0.7332 H         1 <0>         0.0733
     37 H9         -1.2798    0.2717    1.4344 H         1 <0>         0.0761
     38 H10         0.2282    0.9735    0.8008 H         1 <0>         0.0689
     39 H11        -1.2383    0.9571   -0.2077 H         1 <0>         0.0669
     40 H12        -2.6704   -1.8948   -1.1428 H         1 <0>         0.0752
     41 H13        -1.6855   -0.4573   -0.7653 H         1 <0>         0.1497
     42 H14        -4.0863    0.0370   -1.5063 H         1 <0>         0.1069
     43 H15        -2.8190    0.8566   -2.4557 H         1 <0>         0.0706
     44 H16        -3.2907   -1.7044   -5.2457 H         1 <0>         0.0865
     45 H17        -2.3058   -0.2669   -4.8682 H         1 <0>         0.0791
     46 H18        -0.8910   -2.1902   -4.5084 H         1 <0>         0.1076
     47 H19        -2.1570   -3.0146   -3.5616 H         1 <0>         0.0703
     48 H20        -4.8500   -2.0861   -5.2761 H         1 <0>         0.3985
     49 H21        -5.4583   -2.7780   -6.9796 H         1 <0>         0.1194
     50 H22        -5.8409   -4.8099   -8.3167 H         1 <0>         0.1262
     51 H23        -7.7599   -6.2696   -7.8167 H         1 <0>         0.1255
     52 H24        -9.2958   -5.6977   -5.9790 H         1 <0>         0.1275
     53 H25        -8.9084   -3.6702   -4.6365 H         1 <0>         0.1277
     54 H26        -9.3627   -0.3054   -4.7033 H         1 <0>         0.1484
     55 H27        -9.5150    1.7359   -6.4657 H         1 <0>         0.1490
     56 H28        -7.3147    1.6878   -7.8879 H         1 <0>         0.2021
@<TRIPOS>BOND
     1    1    2 1
     2    1   30 1
     3    1   31 1
     4    1   32 1
     5    2    3 1
     6    2   33 1
     7    2   34 1
     8    3    4 1
     9    3    6 am
    10    4    5 1
    11    4   35 1
    12    4   36 1
    13    5   37 1
    14    5   38 1
    15    5   39 1
    16    6    7 2
    17    6    8 am
    18    8   13 1
    19    8    9 1
    20    9   10 1
    21    9   40 1
    22    9   41 1
    23   10   11 1
    24   10   42 1
    25   10   43 1
    26   11   12 1
    27   11   14 am
    28   12   13 1
    29   12   44 1
    30   12   45 1
    31   13   46 1
    32   13   47 1
    33   14   15 2
    34   14   16 am
    35   16   17 1
    36   16   48 1
    37   17   18 1
    38   17   19 1
    39   17   25 1
    40   19   24 ar
    41   19   20 ar
    42   20   21 ar
    43   20   49 1
    44   21   22 ar
    45   21   50 1
    46   22   23 ar
    47   22   51 1
    48   23   24 ar
    49   23   52 1
    50   24   53 1
    51   25   29 1
    52   25   26 2
    53   26   27 1
    54   26   54 1
    55   27   28 2
    56   27   55 1
    57   28   29 1
    58   28   56 1
@<TRIPOS>MOLECULE
ZINC61577290
   51    54     0     0     0
SMALL
USER_CHARGES

@<TRIPOS>ATOM
      1 C1          0.3009    1.9502    0.0119 C.3       1 <0>        -0.1397
      2 C2         -0.0170    0.4669   -0.1871 C.3       1 <0>        -0.0556
      3 C3          1.0801   -0.2626   -1.0413 C.3       1 <0>        -0.0899
      4 C4          2.3250   -0.0902   -0.1175 C.3       1 <0>        -0.1229
      5 C5          1.7544   -0.1661    1.3175 C.3       1 <0>        -0.1108
      6 C6          0.2209   -0.3681    1.1202 C.3       1 <0>        -0.0735
      7 C7          0.0867   -1.7980    0.5779 C.2       1 <0>         0.1168
      8 N1         -0.3967   -2.8162    1.1849 N.2       1 <0>        -0.2285
      9 N2         -0.7786   -2.7143    2.5290 N.am      1 <0>        -0.5839
     10 C8         -1.3169   -3.7772    3.1590 C.2       1 <0>         0.5513
     11 O1         -1.4707   -4.8221    2.5623 O.2       1 <0>        -0.4888
     12 C9         -1.7277   -3.6677    4.6047 C.3       1 <0>        -0.1623
     13 S1         -2.4121   -5.2530    5.1607 S.3       1 <0>         0.1359
     14 C10        -2.8393   -4.9654    6.8457 C.2       1 <0>         0.2001
     15 N3         -2.6868   -3.8402    7.5103 N.2       1 <0>        -0.3327
     16 N4         -3.1010   -3.9716    8.7187 N.2       1 <0>        -0.0239
     17 N5         -3.5413   -5.1669    8.9155 N.2       1 <0>        -0.0678
     18 N6         -3.3931   -5.8608    7.7017 N.pl3     1 <0>        -0.3087
     19 C11        -3.7412   -7.1924    7.4339 C.ar      1 <0>         0.1164
     20 C12        -4.2187   -7.5477    6.1796 C.ar      1 <0>        -0.1120
     21 C13        -4.5603   -8.8603    5.9185 C.ar      1 <0>        -0.0935
     22 C14        -4.4275   -9.8200    6.9051 C.ar      1 <0>        -0.1010
     23 C15        -3.9523   -9.4692    8.1554 C.ar      1 <0>        -0.1001
     24 C16        -3.6036   -8.1593    8.4206 C.ar      1 <0>        -0.0925
     25 C17         0.6496   -1.7473   -0.8350 C.3       1 <0>        -0.0633
     26 C18        -0.6590   -0.0087    2.3191 C.3       1 <0>        -0.1447
     27 C19        -1.4227    0.2593   -0.7544 C.3       1 <0>        -0.1422
     28 H1          1.3459    2.0623    0.3008 H         1 <0>         0.0646
     29 H2          0.1215    2.4883   -0.9190 H         1 <0>         0.0611
     30 H3         -0.3384    2.3569    0.7955 H         1 <0>         0.0574
     31 H4          1.1878    0.0663   -2.0749 H         1 <0>         0.1151
     32 H5          3.0388   -0.8965   -0.2863 H         1 <0>         0.0707
     33 H6          2.7953    0.8779   -0.2893 H         1 <0>         0.0734
     34 H7          2.1836   -1.0130    1.8530 H         1 <0>         0.0645
     35 H8          1.9497    0.7625    1.8539 H         1 <0>         0.0768
     36 H9         -0.6556   -1.8788    3.0061 H         1 <0>         0.3930
     37 H10        -0.8582   -3.4146    5.2114 H         1 <0>         0.1347
     38 H11        -2.4832   -2.8890    4.7098 H         1 <0>         0.1350
     39 H12        -4.3232   -6.7984    5.4088 H         1 <0>         0.1397
     40 H13        -4.9317   -9.1372    4.9430 H         1 <0>         0.1423
     41 H14        -4.6959  -10.8456    6.6989 H         1 <0>         0.1373
     42 H15        -3.8500  -10.2209    8.9241 H         1 <0>         0.1401
     43 H16        -3.2283   -7.8867    9.3959 H         1 <0>         0.1383
     44 H17        -0.1170   -2.0240   -1.5588 H         1 <0>         0.0920
     45 H18         1.5120   -2.4080   -0.9235 H         1 <0>         0.0921
     46 H19        -1.6328   -0.4863    2.2112 H         1 <0>         0.0650
     47 H20        -0.1834   -0.3565    3.2361 H         1 <0>         0.0639
     48 H21        -0.7877    1.0728    2.3641 H         1 <0>         0.0820
     49 H22        -1.5062    0.7697   -1.7139 H         1 <0>         0.0629
     50 H23        -1.6050   -0.8064   -0.8926 H         1 <0>         0.0592
     51 H24        -2.1582    0.6668   -0.0609 H         1 <0>         0.0565
@<TRIPOS>BOND
     1    1    2 1
     2    1   28 1
     3    1   29 1
     4    1   30 1
     5    2    6 1
     6    2    3 1
     7    2   27 1
     8    3   25 1
     9    3    4 1
    10    3   31 1
    11    4    5 1
    12    4   32 1
    13    4   33 1
    14    5    6 1
    15    5   34 1
    16    5   35 1
    17    6    7 1
    18    6   26 1
    19    7    8 2
    20    7   25 1
    21    8    9 1
    22    9   10 am
    23    9   36 1
    24   10   11 2
    25   10   12 1
    26   12   13 1
    27   12   37 1
    28   12   38 1
    29   13   14 1
    30   14   18 1
    31   14   15 2
    32   15   16 1
    33   16   17 2
    34   17   18 1
    35   18   19 1
    36   19   24 ar
    37   19   20 ar
    38   20   21 ar
    39   20   39 1
    40   21   22 ar
    41   21   40 1
    42   22   23 ar
    43   22   41 1
    44   23   24 ar
    45   23   42 1
    46   24   43 1
    47   25   44 1
    48   25   45 1
    49   26   46 1
    50   26   47 1
    51   26   48 1
    52   27   49 1
    53   27   50 1
    54   27   51 1
@<TRIPOS>MOLECULE
ZINC66397640
   50    52     0     0     0
SMALL
USER_CHARGES

@<TRIPOS>ATOM
      1 C1         -0.3314    1.4811    0.0508 C.3       1 <0>        -0.1187
      2 C2         -0.1483   -0.0145    0.0214 C.ar      1 <0>        -0.0591
      3 C3         -0.2493   -0.6967   -1.1712 C.ar      1 <0>        -0.0414
      4 C4         -0.0794   -2.0828   -1.1974 C.ar      1 <0>        -0.1141
      5 C5          0.1925   -2.7723   -0.0132 C.ar      1 <0>        -0.0745
      6 C6          0.2920   -2.0837    1.1754 C.ar      1 <0>        -0.1068
      7 C7          0.1279   -0.7031    1.1968 C.ar      1 <0>         0.1432
      8 N1          0.2358   -0.0058    2.4056 N.pl3     1 <0>        -0.3374
      9 C8         -0.3335   -0.3227    3.5895 C.2       1 <0>         0.2343
     10 N2          0.0262    0.5928    4.4504 N.2       1 <0>        -0.3276
     11 N3          0.7838    1.4667    3.8923 N.2       1 <0>        -0.0321
     12 N4          0.9649    1.1713    2.6502 N.2       1 <0>        -0.0662
     13 C9         -0.1873   -2.8178   -2.4739 C.2       1 <0>         0.5648
     14 O1         -0.4243   -2.2163   -3.5035 O.2       1 <0>        -0.5132
     15 N5         -0.0231   -4.1553   -2.4974 N.am      1 <0>        -0.7160
     16 C10        -0.1302   -4.8844   -3.7635 C.3       1 <0>         0.2966
     17 H1         -0.8886   -4.4150   -4.3901 H         1 <0>         0.1422
     18 C11         1.1673   -4.8546   -4.4581 C.1       1 <0>         0.1895
     19 N6          2.1686   -4.8315   -4.9942 N.1       1 <0>        -0.3980
     20 C12        -0.5201   -6.3139   -3.4887 C.ar      1 <0>        -0.1119
     21 C13         0.0273   -6.9846   -2.4109 C.ar      1 <0>        -0.1020
     22 C14        -0.3304   -8.2958   -2.1588 C.ar      1 <0>        -0.1103
     23 C15        -1.2357   -8.9363   -2.9841 C.ar      1 <0>        -0.0526
     24 C16        -1.7837   -8.2653   -4.0613 C.ar      1 <0>        -0.1157
     25 C17        -1.4293   -6.9526   -4.3109 C.ar      1 <0>        -0.0882
     26 C18        -1.6248  -10.3661   -2.7098 C.3       1 <0>        -0.0335
     27 C19        -2.2574  -10.4649   -1.3202 C.3       1 <0>        -0.1396
     28 C20        -2.6324  -10.8314   -3.7630 C.3       1 <0>        -0.1474
     29 C21        -0.3799  -11.2535   -2.7677 C.3       1 <0>        -0.1408
     30 H2          0.6421    1.9676   -0.0097 H         1 <0>         0.0893
     31 H3         -0.9446    1.7887   -0.7963 H         1 <0>         0.0803
     32 H4         -0.8243    1.7686    0.9795 H         1 <0>         0.0659
     33 H5         -0.4599   -0.1604   -2.0847 H         1 <0>         0.1545
     34 H6          0.3241   -3.8442   -0.0296 H         1 <0>         0.1418
     35 H7          0.5017   -2.6161    2.0913 H         1 <0>         0.1449
     36 H8         -0.9678   -1.1741    3.7875 H         1 <0>         0.2410
     37 H9          0.1660   -4.6352   -1.6759 H         1 <0>         0.4084
     38 H10         0.7346   -6.4842   -1.7661 H         1 <0>         0.1218
     39 H11         0.0978   -8.8201   -1.3172 H         1 <0>         0.1276
     40 H12        -2.4908   -8.7657   -4.7063 H         1 <0>         0.1345
     41 H13        -1.8603   -6.4272   -5.1503 H         1 <0>         0.1319
     42 H14        -3.1443   -9.8326   -1.2789 H         1 <0>         0.0579
     43 H15        -2.5388  -11.4990   -1.1218 H         1 <0>         0.0611
     44 H16        -1.5396  -10.1333   -0.5699 H         1 <0>         0.0576
     45 H17        -2.1817  -10.7611   -4.7530 H         1 <0>         0.0600
     46 H18        -2.9138  -11.8656   -3.5646 H         1 <0>         0.0610
     47 H19        -3.5193  -10.1992   -3.7217 H         1 <0>         0.0605
     48 H20         0.3379  -10.9220   -2.0174 H         1 <0>         0.0576
     49 H21        -0.6613  -12.2877   -2.5693 H         1 <0>         0.0614
     50 H22         0.0707  -11.1832   -3.7577 H         1 <0>         0.0574
@<TRIPOS>BOND
     1    1    2 1
     2    1   30 1
     3    1   31 1
     4    1   32 1
     5    2    7 ar
     6    2    3 ar
     7    3    4 ar
     8    3   33 1
     9    4    5 ar
    10    4   13 1
    11    5    6 ar
    12    5   34 1
    13    6    7 ar
    14    6   35 1
    15    7    8 1
    16    8   12 1
    17    8    9 1
    18    9   10 2
    19    9   36 1
    20   10   11 1
    21   11   12 2
    22   13   14 2
    23   13   15 am
    24   15   16 1
    25   15   37 1
    26   16   17 1
    27   16   18 1
    28   16   20 1
    29   18   19 3
    30   20   25 ar
    31   20   21 ar
    32   21   22 ar
    33   21   38 1
    34   22   23 ar
    35   22   39 1
    36   23   24 ar
    37   23   26 1
    38   24   25 ar
    39   24   40 1
    40   25   41 1
    41   26   27 1
    42   26   28 1
    43   26   29 1
    44   27   42 1
    45   27   43 1
    46   27   44 1
    47   28   45 1
    48   28   46 1
    49   28   47 1
    50   29   48 1
    51   29   49 1
    52   29   50 1
@<TRIPOS>MOLECULE
ZINC13175104
   53    55     0     0     0
SMALL
USER_CHARGES
(5S)-5-[C-ethyl-N-[(1R)-1-phenylethyl]carbonimidoyl]-6-hydroxy-3-(4-methoxyphenyl)-5H-pyrimidine-2,4-dione
@<TRIPOS>ATOM
      1 C1          0.0538    2.9064    0.9740 C.3       1 <0>        -0.1579
      2 C2         -0.0454    1.8777   -0.1543 C.3       1 <0>        -0.1394
      3 C3         -1.1205    2.2972   -1.1234 C.2       1 <0>         0.3573
      4 C4         -2.8061    1.1337    0.2059 C.3       1 <0>         0.1372
      5 H1         -2.0013    1.0356    0.9346 H         1 <0>         0.1476
      6 C5         -3.2453   -0.2561   -0.2590 C.3       1 <0>        -0.1736
      7 C6         -3.9742    1.8436    0.8402 C.ar      1 <0>        -0.1376
      8 C7         -4.9264    2.4541    0.0456 C.ar      1 <0>        -0.1073
      9 C8         -6.0003    3.1016    0.6274 C.ar      1 <0>        -0.1034
     10 C9         -6.1172    3.1464    2.0040 C.ar      1 <0>        -0.0921
     11 C10        -5.1622    2.5404    2.7988 C.ar      1 <0>        -0.1064
     12 C11        -4.0906    1.8892    2.2169 C.ar      1 <0>        -0.0922
     13 C12        -0.7746    3.1739   -2.2993 C.3       1 <0>        -0.1354
     14 H2         -0.3347    4.0943   -1.9155 H         1 <0>         0.2210
     15 C13         0.2782    2.4611   -3.1258 C.2       1 <0>         0.4552
     16 N1          0.0041    2.2081   -4.3797 N.2       1 <0>        -0.5571
     17 C14        -1.1560    2.5523   -4.9482 C.2       1 <0>         0.6630
     18 O1         -1.3137    2.2724   -6.1215 O.2       1 <0>        -0.4242
     19 N2         -2.1567    3.1831   -4.3209 N.am      1 <0>        -0.5189
     20 C15        -2.0629    3.5301   -3.0180 C.2       1 <0>         0.5126
     21 O2         -2.9682    4.1013   -2.4485 O.2       1 <0>        -0.4325
     22 C16        -3.3273    3.4898   -5.0309 C.ar      1 <0>         0.0487
     23 C17        -3.3841    4.6339   -5.8151 C.ar      1 <0>        -0.0407
     24 C18        -4.5346    4.9326   -6.5177 C.ar      1 <0>        -0.1947
     25 C19        -5.6376    4.0955   -6.4311 C.ar      1 <0>         0.1617
     26 C20        -5.5831    2.9548   -5.6434 C.ar      1 <0>        -0.1388
     27 C21        -4.4310    2.6523   -4.9448 C.ar      1 <0>        -0.0563
     28 O3         -6.7721    4.3930   -7.1187 O.3       1 <0>        -0.3073
     29 C22        -6.7581    5.5829   -7.9098 C.3       1 <0>         0.0208
     30 O4          1.4546    2.1011   -2.5877 O.3       1 <0>        -0.4285
     31 H3         -0.9015    2.9673    1.4952 H         1 <0>         0.0718
     32 H4          0.8314    2.6030    1.6749 H         1 <0>         0.1060
     33 H5          0.3023    3.8817    0.5556 H         1 <0>         0.0803
     34 H6         -0.2939    0.9023    0.2641 H         1 <0>         0.1271
     35 H7          0.9099    1.8168   -0.6755 H         1 <0>         0.1540
     36 H8         -3.5985   -0.8310    0.5971 H         1 <0>         0.1124
     37 H9         -4.0500   -0.1580   -0.9877 H         1 <0>         0.0797
     38 H10        -2.4004   -0.7697   -0.7179 H         1 <0>         0.0811
     39 H11        -4.8331    2.4224   -1.0299 H         1 <0>         0.1114
     40 H12        -6.7465    3.5748    0.0064 H         1 <0>         0.1345
     41 H13        -6.9548    3.6545    2.4586 H         1 <0>         0.1359
     42 H14        -5.2536    2.5753    3.8744 H         1 <0>         0.1375
     43 H15        -3.3446    1.4157    2.8379 H         1 <0>         0.1336
     44 H16        -2.5272    5.2881   -5.8788 H         1 <0>         0.1320
     45 H17        -4.5773    5.8201   -7.1316 H         1 <0>         0.1450
     46 H18        -6.4420    2.3035   -5.5763 H         1 <0>         0.1470
     47 H19        -4.3887    1.7641   -4.3320 H         1 <0>         0.1267
     48 H20        -7.7221    5.7018   -8.4044 H         1 <0>         0.1100
     49 H21        -6.5703    6.4437   -7.2680 H         1 <0>         0.0615
     50 H22        -5.9710    5.5108   -8.6605 H         1 <0>         0.0626
     51 H23         2.0829    1.6498   -3.1678 H         1 <0>         0.4534
     52 N3         -2.3745    1.9258   -0.9967 N.pl3     1 <0>        -0.5298
     53 H24        -3.0597    2.1766   -1.7191 H         1 <0>         0.4455
@<TRIPOS>BOND
     1    1    2 1
     2    1   31 1
     3    1   32 1
     4    1   33 1
     5    2    3 1
     6    2   34 1
     7    2   35 1
     8    3   13 1
     9    3   52 2
    10    4    5 1
    11    4    6 1
    12    4    7 1
    13    4   52 1
    14    6   36 1
    15    6   37 1
    16    6   38 1
    17    7   12 ar
    18    7    8 ar
    19    8    9 ar
    20    8   39 1
    21    9   10 ar
    22    9   40 1
    23   10   11 ar
    24   10   41 1
    25   11   12 ar
    26   11   42 1
    27   12   43 1
    28   13   14 1
    29   13   20 1
    30   13   15 1
    31   15   16 2
    32   15   30 1
    33   16   17 1
    34   17   18 2
    35   17   19 am
    36   19   20 am
    37   19   22 1
    38   20   21 2
    39   22   27 ar
    40   22   23 ar
    41   23   24 ar
    42   23   44 1
    43   24   25 ar
    44   24   45 1
    45   25   26 ar
    46   25   28 1
    47   26   27 ar
    48   26   46 1
    49   27   47 1
    50   28   29 1
    51   29   48 1
    52   29   49 1
    53   29   50 1
    54   30   51 1
    55   52   53 1
@<TRIPOS>MOLECULE
ZINC40155598
   50    52     0     0     0
SMALL
USER_CHARGES

@<TRIPOS>ATOM
      1 C1         -0.0173    1.4248    0.0099 C.3       1 <0>         0.0207
      2 O1          0.0021   -0.0041    0.0020 O.3       1 <0>        -0.2953
      3 C2          0.6062   -0.6075   -1.0564 C.ar      1 <0>         0.1338
      4 C3          1.1727    0.1562   -2.0620 C.ar      1 <0>        -0.1668
      5 C4          1.7904   -0.4551   -3.1419 C.ar      1 <0>        -0.0850
      6 C5          1.8447   -1.8313   -3.2181 C.ar      1 <0>        -0.1351
      7 C6          1.2763   -2.6008   -2.2137 C.ar      1 <0>        -0.1548
      8 C7          0.6628   -1.9960   -1.1309 C.ar      1 <0>         0.1195
      9 O2          0.1126   -2.7554   -0.1461 O.3       1 <0>        -0.2956
     10 C8          0.2090   -4.1739   -0.2902 C.3       1 <0>         0.0215
     11 C9          2.5142   -2.5347   -4.3695 C.3       1 <0>         0.0470
     12 N1          2.6593   -1.6297   -5.5131 N.4       1 <0>        -0.3792
     13 C10         3.3525   -0.4093   -5.0732 C.3       1 <0>        -0.0015
     14 C11         2.3911    0.4153   -4.2165 C.3       1 <0>        -0.1013
     15 C12         3.4446   -2.2890   -6.5651 C.3       1 <0>        -0.0212
     16 C13         2.6696   -3.4948   -7.1001 C.3       1 <0>         0.0940
     17 N2          3.4527   -4.1523   -8.1492 N.pl3     1 <0>        -0.7305
     18 C14         2.9473   -5.2856   -8.7920 C.ar      1 <0>         0.2647
     19 C15         1.7002   -5.7865   -8.4416 C.ar      1 <0>        -0.1843
     20 C16         1.2033   -6.9064   -9.0791 C.ar      1 <0>         0.0013
     21 C17         1.9458   -7.5297  -10.0653 C.ar      1 <0>        -0.0835
     22 C18         3.1878   -7.0343  -10.4173 C.ar      1 <0>         0.0044
     23 C19         3.6889   -5.9106   -9.7876 C.ar      1 <0>        -0.1090
     24 Cl1         5.2452   -5.2848  -10.2348 Cl        1 <0>        -0.0323
     25 N3          1.4100   -8.7301  -10.7453 N.pl3     1 <0>         0.0354
     26 O3          0.3244   -9.1647  -10.4384 O.2       1 <0>        -0.1520
     27 O4          2.0579   -9.2761  -11.6077 O.3       1 <0>        -0.1512
     28 H1          1.0053    1.8021    0.0021 H         1 <0>         0.0609
     29 H2         -0.5445    1.7859   -0.8732 H         1 <0>         0.0607
     30 H3         -0.5275    1.7763    0.9067 H         1 <0>         0.1119
     31 H4          1.1331    1.2340   -2.0052 H         1 <0>         0.1477
     32 H5          1.3166   -3.6783   -2.2750 H         1 <0>         0.1460
     33 H6         -0.2898   -4.4804   -1.2096 H         1 <0>         0.0590
     34 H7          1.2587   -4.4643   -0.3322 H         1 <0>         0.0593
     35 H8         -0.2685   -4.6588    0.5612 H         1 <0>         0.1115
     36 H9          3.5000   -2.8786   -4.0562 H         1 <0>         0.1398
     37 H10         1.9118   -3.3936   -4.6651 H         1 <0>         0.1374
     38 H11         4.2289   -0.6785   -4.4837 H         1 <0>         0.1359
     39 H12         3.6579    0.1719   -5.9432 H         1 <0>         0.1400
     40 H13         1.5960    0.8144   -4.8462 H         1 <0>         0.1047
     41 H14         2.9339    1.2396   -3.7538 H         1 <0>         0.1250
     42 H15         3.6273   -1.5852   -7.3771 H         1 <0>         0.1441
     43 H16         4.3966   -2.6229   -6.1525 H         1 <0>         0.1417
     44 H17         2.4868   -4.1986   -6.2881 H         1 <0>         0.0904
     45 H18         1.7175   -3.1609   -7.5126 H         1 <0>         0.0919
     46 H19         4.3221   -3.8010   -8.3977 H         1 <0>         0.4152
     47 H20         1.1198   -5.3010   -7.6710 H         1 <0>         0.1510
     48 H21         0.2336   -7.2962   -8.8068 H         1 <0>         0.1640
     49 H22         3.7651   -7.5234  -11.1880 H         1 <0>         0.1688
     50 H23         1.7472   -1.3894   -5.8713 H         1 <0>         0.4292
@<TRIPOS>BOND
     1    1    2 1
     2    1   28 1
     3    1   29 1
     4    1   30 1
     5    2    3 1
     6    3    8 ar
     7    3    4 ar
     8    4    5 ar
     9    4   31 1
    10    5   14 1
    11    5    6 ar
    12    6    7 ar
    13    6   11 1
    14    7    8 ar
    15    7   32 1
    16    8    9 1
    17    9   10 1
    18   10   33 1
    19   10   34 1
    20   10   35 1
    21   11   12 1
    22   11   36 1
    23   11   37 1
    24   12   13 1
    25   12   15 1
    26   12   50 1
    27   13   14 1
    28   13   38 1
    29   13   39 1
    30   14   40 1
    31   14   41 1
    32   15   16 1
    33   15   42 1
    34   15   43 1
    35   16   17 1
    36   16   44 1
    37   16   45 1
    38   17   18 1
    39   17   46 1
    40   18   23 ar
    41   18   19 ar
    42   19   20 ar
    43   19   47 1
    44   20   21 ar
    45   20   48 1
    46   21   22 ar
    47   21   25 1
    48   22   23 ar
    49   22   49 1
    50   23   24 1
    51   25   26 2
    52   25   27 1
@<TRIPOS>MOLECULE
ZINC62647817
   64    66     0     0     0
SMALL
USER_CHARGES

@<TRIPOS>ATOM
      1 C1          0.7308   -2.3759   -3.2091 C.3       1 <0>        -0.1532
      2 C2          0.0141   -2.0965   -1.8865 C.3       1 <0>        -0.1002
      3 C3         -1.3846   -2.7154   -1.9237 C.3       1 <0>        -0.1285
      4 C4         -2.1013   -2.4359   -0.6011 C.3       1 <0>        -0.1337
      5 C5         -1.3028   -3.0490    0.5511 C.3       1 <0>        -0.1372
      6 C6          0.0959   -2.4301    0.5883 C.3       1 <0>         0.0465
      7 C7          0.8126   -2.7095   -0.7343 C.3       1 <0>        -0.1355
      8 C8          0.8944   -3.0431    1.7404 C.3       1 <0>         0.1278
      9 N1          0.9286   -4.5000    1.5900 N.am      1 <0>        -0.7437
     10 C9          1.4909   -5.2633    2.5480 C.2       1 <0>         0.7112
     11 O1          1.9697   -4.7429    3.5370 O.2       1 <0>        -0.5763
     12 N2          1.5224   -6.6036    2.4096 N.am      1 <0>        -0.6165
     13 C10         0.9455   -7.2307    1.2179 C.3       1 <0>         0.0709
     14 C11         2.1335   -7.4334    3.4509 C.3       1 <0>         0.1958
     15 C12         3.3517   -8.1586    2.8755 C.3       1 <0>        -0.1648
     16 C13         1.1302   -8.4463    3.9393 C.ar      1 <0>        -0.1060
     17 C14         1.5602   -9.6791    4.3946 C.ar      1 <0>        -0.0842
     18 C15         0.6431  -10.6094    4.8433 C.ar      1 <0>        -0.1062
     19 C16        -0.7116  -10.3056    4.8368 C.ar      1 <0>         0.1571
     20 C17        -1.1402   -9.0669    4.3791 C.ar      1 <0>        -0.1337
     21 C18        -0.2179   -8.1388    3.9366 C.ar      1 <0>        -0.0795
     22 N3         -1.6449  -11.2479    5.2912 N.pl3     1 <0>        -0.3359
     23 C19        -2.9832  -11.1007    5.3399 C.2       1 <0>         0.2610
     24 N4         -3.4946  -12.2033    5.8248 N.2       1 <0>        -0.5318
     25 C20        -2.5214  -13.0723    6.0959 C.2       1 <0>         0.2139
     26 N5         -1.3715  -12.5356    5.7806 N.2       1 <0>        -0.3123
     27 N6         -0.0158   -0.9790    0.7876 N.4       1 <0>        -0.3767
     28 C21        -0.6279   -0.7101    2.0956 C.3       1 <0>        -0.0624
     29 C22         1.3218   -0.3736    0.7391 C.3       1 <0>        -0.0620
     30 H1          0.8137   -3.4527   -3.3570 H         1 <0>         0.0655
     31 H2          0.1620   -1.9392   -4.0299 H         1 <0>         0.0688
     32 H3          1.7273   -1.9350   -3.1826 H         1 <0>         0.0626
     33 H4         -0.0688   -1.0197   -1.7386 H         1 <0>         0.0650
     34 H5         -1.9535   -2.2786   -2.7445 H         1 <0>         0.0833
     35 H6         -1.3017   -3.7921   -2.0716 H         1 <0>         0.0799
     36 H7         -2.1842   -1.3592   -0.4532 H         1 <0>         0.0588
     37 H8         -3.0978   -2.8768   -0.6276 H         1 <0>         0.0956
     38 H9         -1.8134   -2.8499    1.4933 H         1 <0>         0.0942
     39 H10        -1.2199   -4.1257    0.4032 H         1 <0>         0.1073
     40 H11         0.8955   -3.7863   -0.8822 H         1 <0>         0.1082
     41 H12         1.8091   -2.2686   -0.7078 H         1 <0>         0.0957
     42 H13         1.9118   -2.6524    1.7258 H         1 <0>         0.0886
     43 H14         0.4203   -2.7867    2.6879 H         1 <0>         0.0933
     44 H15         0.5467   -4.9152    0.8010 H         1 <0>         0.4011
     45 H16         1.6789   -7.2222    0.4117 H         1 <0>         0.0625
     46 H17         0.6690   -8.2600    1.4467 H         1 <0>         0.0869
     47 H18         0.0592   -6.6766    0.9087 H         1 <0>         0.0618
     48 H19         2.4460   -6.8014    4.2822 H         1 <0>         0.1195
     49 H20         3.0392   -8.7905    2.0442 H         1 <0>         0.0645
     50 H21         4.0773   -7.4259    2.5223 H         1 <0>         0.0658
     51 H22         3.8064   -8.7759    3.6503 H         1 <0>         0.0788
     52 H23         2.6141   -9.9150    4.3991 H         1 <0>         0.1410
     53 H24         0.9795  -11.5722    5.1985 H         1 <0>         0.1431
     54 H25        -2.1934   -8.8278    4.3729 H         1 <0>         0.1325
     55 H26        -0.5504   -7.1736    3.5842 H         1 <0>         0.1273
     56 H27        -3.5370  -10.2259    5.0326 H         1 <0>         0.2219
     57 H28        -2.6604  -14.0620    6.5053 H         1 <0>         0.2268
     58 H29         0.0401   -1.0514    2.8864 H         1 <0>         0.1282
     59 H30        -0.8004    0.3608    2.2028 H         1 <0>         0.1301
     60 H31        -1.5776   -1.2401    2.1682 H         1 <0>         0.1267
     61 H32         1.7760   -0.5731   -0.2314 H         1 <0>         0.1274
     62 H33         1.2389    0.7031    0.8870 H         1 <0>         0.1301
     63 H34         1.9430   -0.8016    1.5259 H         1 <0>         0.1270
     64 H35        -0.5909   -0.5827    0.0593 H         1 <0>         0.4263
@<TRIPOS>BOND
     1    1    2 1
     2    1   30 1
     3    1   31 1
     4    1   32 1
     5    2    7 1
     6    2    3 1
     7    2   33 1
     8    3    4 1
     9    3   34 1
    10    3   35 1
    11    4    5 1
    12    4   36 1
    13    4   37 1
    14    5    6 1
    15    5   38 1
    16    5   39 1
    17    6    7 1
    18    6    8 1
    19    6   27 1
    20    7   40 1
    21    7   41 1
    22    8    9 1
    23    8   42 1
    24    8   43 1
    25    9   10 am
    26    9   44 1
    27   10   11 2
    28   10   12 am
    29   12   13 1
    30   12   14 1
    31   13   45 1
    32   13   46 1
    33   13   47 1
    34   14   15 1
    35   14   16 1
    36   14   48 1
    37   15   49 1
    38   15   50 1
    39   15   51 1
    40   16   21 ar
    41   16   17 ar
    42   17   18 ar
    43   17   52 1
    44   18   19 ar
    45   18   53 1
    46   19   20 ar
    47   19   22 1
    48   20   21 ar
    49   20   54 1
    50   21   55 1
    51   22   26 1
    52   22   23 1
    53   23   24 2
    54   23   56 1
    55   24   25 1
    56   25   26 2
    57   25   57 1
    58   27   28 1
    59   27   29 1
    60   27   64 1
    61   28   58 1
    62   28   59 1
    63   28   60 1
    64   29   61 1
    65   29   62 1
    66   29   63 1
@<TRIPOS>MOLECULE
ZINC64800790
   58    60     0     0     0
SMALL
USER_CHARGES

@<TRIPOS>ATOM
      1 C1         -0.0187    1.5258    0.0104 C.3       1 <0>        -0.1516
      2 C2          0.0021   -0.0041    0.0020 C.3       1 <0>        -0.1074
      3 C3          0.7236   -0.4988   -1.2549 C.3       1 <0>        -0.1309
      4 C4          0.8078   -2.0274   -1.2149 C.3       1 <0>        -0.1087
      5 C5          1.5179   -2.4602    0.0696 C.3       1 <0>        -0.0153
      6 N1          0.7655   -1.9795    1.2346 N.4       1 <0>        -0.3777
      7 C6          0.7420   -0.5119    1.2414 C.3       1 <0>        -0.0173
      8 C7          1.4078   -2.4632    2.4640 C.3       1 <0>         0.0459
      9 C8          1.4247   -3.9931    2.4627 C.3       1 <0>        -0.1785
     10 C9          2.8431   -1.9373    2.5304 C.3       1 <0>        -0.1758
     11 C10         0.6246   -1.9629    3.6794 C.3       1 <0>         0.1019
     12 N2         -0.7497   -2.4663    3.6159 N.am      1 <0>        -0.7513
     13 C11        -1.6284   -2.1513    4.5880 C.2       1 <0>         0.5271
     14 O1         -1.2814   -1.4510    5.5154 O.2       1 <0>        -0.5070
     15 C12        -3.0421   -2.6692    4.5226 C.3       1 <0>        -0.1405
     16 C13        -3.8253   -2.1689    5.7380 C.3       1 <0>        -0.0230
     17 C14        -5.2390   -2.6868    5.6726 C.2       1 <0>         0.2906
     18 N3         -5.6629   -3.8060    6.1853 N.2       1 <0>        -0.5229
     19 C15        -6.9791   -3.9554    5.9415 C.2       1 <0>         0.3368
     20 N4         -7.3992   -2.9134    5.2623 N.2       1 <0>        -0.3126
     21 O2         -6.2712   -2.0702    5.0824 O.3       1 <0>        -0.0928
     22 C16        -7.8106   -5.1001    6.3668 C.2       1 <0>         0.0164
     23 C17        -9.1383   -5.2580    6.1185 C.2       1 <0>        -0.1234
     24 C18        -9.5171   -6.4825    6.7016 C.2       1 <0>        -0.2192
     25 C19        -8.4135   -7.0068    7.2715 C.2       1 <0>         0.0075
     26 O3         -7.3840   -6.1717    7.0630 O.3       1 <0>        -0.1520
     27 C20         1.5954   -2.5275   -2.4275 C.3       1 <0>        -0.1514
     28 H1          1.0039    1.9031    0.0027 H         1 <0>         0.0679
     29 H2         -0.5459    1.8868   -0.8726 H         1 <0>         0.0787
     30 H3         -0.5289    1.8773    0.9072 H         1 <0>         0.0687
     31 H4         -1.0203   -0.3820    0.0082 H         1 <0>         0.0922
     32 H5          0.1688   -0.1873   -2.1400 H         1 <0>         0.0956
     33 H6          1.7290   -0.0791   -1.2871 H         1 <0>         0.0838
     34 H7         -0.1976   -2.4479   -1.2345 H         1 <0>         0.0925
     35 H8          1.5797   -3.5480    0.1011 H         1 <0>         0.1337
     36 H9          2.5232   -2.0394    0.0879 H         1 <0>         0.1337
     37 H10         1.7639   -0.1326    1.2348 H         1 <0>         0.1343
     38 H11         0.2311   -0.1613    2.1381 H         1 <0>         0.1319
     39 H12         1.9827   -4.3495    1.5968 H         1 <0>         0.0894
     40 H13         1.9013   -4.3520    3.3749 H         1 <0>         0.1116
     41 H14         0.4022   -4.3677    2.4154 H         1 <0>         0.0799
     42 H15         2.8310   -0.8474    2.5314 H         1 <0>         0.0865
     43 H16         3.3197   -2.2962    3.4426 H         1 <0>         0.1102
     44 H17         3.4010   -2.2938    1.6645 H         1 <0>         0.0900
     45 H18         1.1012   -2.3217    4.5917 H         1 <0>         0.1161
     46 H19         0.6126   -0.8729    3.6804 H         1 <0>         0.0973
     47 H20        -1.0271   -3.0265    2.8741 H         1 <0>         0.3968
     48 H21        -3.5187   -2.3103    3.6104 H         1 <0>         0.1088
     49 H22        -3.0301   -3.7591    4.5216 H         1 <0>         0.1135
     50 H23        -3.3487   -2.5278    6.6502 H         1 <0>         0.1271
     51 H24        -3.8373   -1.0790    5.7390 H         1 <0>         0.1183
     52 H25        -9.7785   -4.5758    5.5790 H         1 <0>         0.1624
     53 H26       -10.5049   -6.9190    6.6938 H         1 <0>         0.1643
     54 H27        -8.3652   -7.9452    7.8040 H         1 <0>         0.2188
     55 H28         2.6011   -2.1079   -2.4058 H         1 <0>         0.0678
     56 H29         1.6550   -3.6155   -2.3985 H         1 <0>         0.0686
     57 H30         1.0912   -2.2156   -3.3422 H         1 <0>         0.0785
     58 H31        -0.1797   -2.3298    1.1912 H         1 <0>         0.4141
@<TRIPOS>BOND
     1    1    2 1
     2    1   28 1
     3    1   29 1
     4    1   30 1
     5    2    7 1
     6    2    3 1
     7    2   31 1
     8    3    4 1
     9    3   32 1
    10    3   33 1
    11    4    5 1
    12    4   27 1
    13    4   34 1
    14    5    6 1
    15    5   35 1
    16    5   36 1
    17    6    7 1
    18    6    8 1
    19    6   58 1
    20    7   37 1
    21    7   38 1
    22    8    9 1
    23    8   10 1
    24    8   11 1
    25    9   39 1
    26    9   40 1
    27    9   41 1
    28   10   42 1
    29   10   43 1
    30   10   44 1
    31   11   12 1
    32   11   45 1
    33   11   46 1
    34   12   13 am
    35   12   47 1
    36   13   14 2
    37   13   15 1
    38   15   16 1
    39   15   48 1
    40   15   49 1
    41   16   17 1
    42   16   50 1
    43   16   51 1
    44   17   21 1
    45   17   18 2
    46   18   19 1
    47   19   20 2
    48   19   22 1
    49   20   21 1
    50   22   26 1
    51   22   23 2
    52   23   24 1
    53   23   52 1
    54   24   25 2
    55   24   53 1
    56   25   26 1
    57   25   54 1
    58   27   55 1
    59   27   56 1
    60   27   57 1
@<TRIPOS>MOLECULE
ZINC66599718
   63    65     0     0     0
SMALL
USER_CHARGES

@<TRIPOS>ATOM
      1 C1         -2.9799   -8.3372   -1.7928 C.3       1 <0>        -0.1583
      2 C2         -1.5165   -7.8958   -1.8606 C.3       1 <0>        -0.1208
      3 C3         -1.4497   -6.3829   -2.0785 C.3       1 <0>        -0.1464
      4 C4          0.0137   -5.9415   -2.1463 C.3       1 <0>        -0.0208
      5 N1          0.0778   -4.4889   -2.3555 N.4       1 <0>        -0.3825
      6 C5         -0.4797   -4.1607   -3.6731 C.3       1 <0>        -0.0120
      7 C6         -0.4899   -2.6424   -3.8631 C.3       1 <0>        -0.1471
      8 C7          0.9434   -2.1118   -3.7670 C.3       1 <0>        -0.1380
      9 C8          1.5405   -2.5239   -2.4183 C.3       1 <0>        -0.1399
     10 C9          1.4755   -4.0466   -2.2819 C.3       1 <0>         0.0184
     11 H1          2.0450   -4.5079   -3.0887 H         1 <0>         0.1556
     12 C10         2.0713   -4.4633   -0.9357 C.3       1 <0>         0.1145
     13 N2          1.2247   -3.9614    0.1494 N.am      1 <0>        -0.7642
     14 C11         1.6061   -4.1237    1.4319 C.2       1 <0>         0.7137
     15 O1          2.6049   -4.7663    1.6924 O.2       1 <0>        -0.5640
     16 N3          0.8804   -3.5737    2.4255 N.am      1 <0>        -0.6230
     17 C12         1.3457   -3.6423    3.8179 C.3       1 <0>         0.1148
     18 C13         1.4116   -2.2182    4.3833 C.3       1 <0>         0.0802
     19 N4          0.1411   -1.5387    4.0938 N.am      1 <0>        -0.6105
     20 C14        -0.3242   -1.4701    2.7014 C.3       1 <0>         0.0981
     21 C15        -0.3874   -2.8893    2.1353 C.3       1 <0>         0.0992
     22 C16        -0.5846   -0.9887    5.0874 C.2       1 <0>         0.6122
     23 O2         -1.6880   -0.5316    4.8539 O.2       1 <0>        -0.5139
     24 C17        -0.0446   -0.9411    6.4501 C.2       1 <0>        -0.1004
     25 C18        -0.7211   -0.5444    7.5679 C.2       1 <0>        -0.0975
     26 C19         0.1743   -0.6577    8.6429 C.2       1 <0>        -0.2222
     27 C20         1.3433   -1.1128    8.1406 C.2       1 <0>         0.0267
     28 O3          1.2059   -1.2872    6.8198 O.3       1 <0>        -0.1623
     29 C21         2.5940   -1.3841    8.9363 C.3       1 <0>        -0.0840
     30 H2         -3.4747   -7.8287   -0.9653 H         1 <0>         0.0588
     31 H3         -3.4799   -8.0823   -2.7271 H         1 <0>         0.0593
     32 H4         -3.0274   -9.4150   -1.6375 H         1 <0>         0.0674
     33 H5         -1.0164   -8.1507   -0.9262 H         1 <0>         0.0731
     34 H6         -1.0216   -8.4042   -2.6880 H         1 <0>         0.0741
     35 H7         -1.9498   -6.1279   -3.0128 H         1 <0>         0.0876
     36 H8         -1.9446   -5.8744   -1.2510 H         1 <0>         0.0842
     37 H9          0.5137   -6.1964   -1.2119 H         1 <0>         0.1344
     38 H10         0.5086   -6.4499   -2.9738 H         1 <0>         0.1344
     39 H11         0.1315   -4.6196   -4.4503 H         1 <0>         0.1324
     40 H12        -1.4986   -4.5418   -3.7411 H         1 <0>         0.1341
     41 H13        -0.9025   -2.4009   -4.8426 H         1 <0>         0.1152
     42 H14        -1.1011   -2.1825   -3.0865 H         1 <0>         0.0868
     43 H15         1.5426   -2.5321   -4.5746 H         1 <0>         0.0851
     44 H16         0.9356   -1.0246   -3.8451 H         1 <0>         0.0974
     45 H17         2.5792   -2.1977   -2.3652 H         1 <0>         0.1170
     46 H18         0.9714   -2.0616   -1.6118 H         1 <0>         0.0851
     47 H19         2.1235   -5.5508   -0.8825 H         1 <0>         0.0956
     48 H20         3.0735   -4.0462   -0.8373 H         1 <0>         0.1161
     49 H21         0.3897   -3.5122   -0.0551 H         1 <0>         0.3855
     50 H22         0.6489   -4.2381    4.4075 H         1 <0>         0.0788
     51 H23         2.3367   -4.0951    3.8505 H         1 <0>         0.1130
     52 H24         1.5671   -2.2594    5.4614 H         1 <0>         0.1251
     53 H25         2.2320   -1.6757    3.9134 H         1 <0>         0.0792
     54 H26        -1.3152   -1.0173    2.6688 H         1 <0>         0.1122
     55 H27         0.3725   -0.8743    2.1118 H         1 <0>         0.0763
     56 H28        -0.5407   -2.8450    1.0571 H         1 <0>         0.0771
     57 H29        -1.2104   -3.4303    2.6024 H         1 <0>         0.0856
     58 H30        -1.7464   -0.2086    7.6156 H         1 <0>         0.1624
     59 H31        -0.0322   -0.4246    9.6771 H         1 <0>         0.1603
     60 H32         2.5862   -2.4169    9.2846 H         1 <0>         0.0904
     61 H33         3.4682   -1.2197    8.3063 H         1 <0>         0.0819
     62 H34         2.6323   -0.7118    9.7934 H         1 <0>         0.0967
     63 H35        -0.4595   -4.0229   -1.6397 H         1 <0>         0.4115
@<TRIPOS>BOND
     1    1    2 1
     2    1   30 1
     3    1   31 1
     4    1   32 1
     5    2    3 1
     6    2   33 1
     7    2   34 1
     8    3    4 1
     9    3   35 1
    10    3   36 1
    11    4    5 1
    12    4   37 1
    13    4   38 1
    14    5   10 1
    15    5    6 1
    16    5   63 1
    17    6    7 1
    18    6   39 1
    19    6   40 1
    20    7    8 1
    21    7   41 1
    22    7   42 1
    23    8    9 1
    24    8   43 1
    25    8   44 1
    26    9   10 1
    27    9   45 1
    28    9   46 1
    29   10   11 1
    30   10   12 1
    31   12   13 1
    32   12   47 1
    33   12   48 1
    34   13   14 am
    35   13   49 1
    36   14   15 2
    37   14   16 am
    38   16   21 1
    39   16   17 1
    40   17   18 1
    41   17   50 1
    42   17   51 1
    43   18   19 1
    44   18   52 1
    45   18   53 1
    46   19   20 1
    47   19   22 am
    48   20   21 1
    49   20   54 1
    50   20   55 1
    51   21   56 1
    52   21   57 1
    53   22   23 2
    54   22   24 1
    55   24   28 1
    56   24   25 2
    57   25   26 1
    58   25   58 1
    59   26   27 2
    60   26   59 1
    61   27   28 1
    62   27   29 1
    63   29   60 1
    64   29   61 1
    65   29   62 1
@<TRIPOS>MOLECULE
ZINC03446457
   46    50     0     0     0
SMALL
USER_CHARGES
4-hydroxy-1-(3-pyridylBLAHyl)-pyrrolidine-2-carboxamide
@<TRIPOS>ATOM
      1 C1          5.5110    0.3548    4.1959 C.ar      1 <0>        -0.1784
      2 C2          4.2503    0.9058    4.3493 C.ar      1 <0>        -0.0262
      3 C3          3.3974    0.9281    3.2418 C.ar      1 <0>        -0.0978
      4 C4          3.8453    0.3925    2.0353 C.ar      1 <0>         0.1500
      5 N1          5.0561   -0.1162    1.9364 N.ar      1 <0>        -0.4874
      6 C5          5.8829   -0.1512    2.9639 C.ar      1 <0>         0.1181
      7 C6          2.0366    1.5065    3.3504 C.ar      1 <0>         0.3960
      8 N2          1.2441    1.5119    2.2830 N.ar      1 <0>        -0.5574
      9 C7          0.0237    2.0185    2.3179 C.ar      1 <0>         0.4049
     10 C8         -0.4636    2.5670    3.5374 C.ar      1 <0>        -0.1438
     11 C9         -1.7773    3.1741    3.8043 C.2       1 <0>        -0.0845
     12 C10        -1.9980    3.6205    5.0517 C.2       1 <0>        -0.1727
     13 S1         -0.4970    3.2737    5.9402 S.3       1 <0>         0.1550
     14 C11         0.4265    2.5234    4.6268 C.ar      1 <0>         0.1203
     15 N3          1.6328    2.0050    4.5120 N.ar      1 <0>        -0.4729
     16 C12        -3.3721    4.2152    5.2075 C.3       1 <0>        -0.0356
     17 C13        -4.1606    3.6948    3.9857 C.3       1 <0>        -0.1178
     18 C14        -3.0308    3.4452    2.9674 C.3       1 <0>        -0.0563
     19 N4         -0.7713    2.0104    1.1858 N.pl3     1 <0>        -0.4342
     20 C15        -0.4281    3.1332    0.2837 C.3       1 <0>         0.0144
     21 C16        -0.6244    2.6324   -1.1593 C.3       1 <0>         0.1026
     22 H1          0.3124    2.6933   -1.7132 H         1 <0>         0.0776
     23 C17        -1.0695    1.1587   -1.0182 C.3       1 <0>        -0.1065
     24 C18        -0.5536    0.7744    0.3913 C.3       1 <0>         0.0433
     25 H2          0.5059    0.5206    0.3572 H         1 <0>         0.1113
     26 C19        -1.3547   -0.3697    0.9573 C.2       1 <0>         0.5274
     27 O1         -2.0195   -0.2075    1.9587 O.2       1 <0>        -0.5177
     28 N5         -1.3324   -1.5730    0.3508 N.am      1 <0>        -0.8528
     29 O2         -1.6383    3.3961   -1.8157 O.3       1 <0>        -0.5533
     30 H3          6.1969    0.3207    5.0295 H         1 <0>         0.1441
     31 H4          3.9336    1.3079    5.3003 H         1 <0>         0.1487
     32 H5          3.1953    0.3987    1.1729 H         1 <0>         0.1649
     33 H6          6.8658   -0.5814    2.8407 H         1 <0>         0.1623
     34 H7         -3.8333    3.8701    6.1329 H         1 <0>         0.0838
     35 H8         -3.3195    5.3038    5.1907 H         1 <0>         0.0902
     36 H9         -4.6830    2.7683    4.2241 H         1 <0>         0.0784
     37 H10        -4.8565    4.4498    3.6199 H         1 <0>         0.0858
     38 H11        -2.8840    4.3266    2.3432 H         1 <0>         0.0774
     39 H12        -3.2657    2.5791    2.3487 H         1 <0>         0.0898
     40 H13         0.6107    3.4251    0.4373 H         1 <0>         0.0631
     41 H14        -1.0844    3.9824    0.4745 H         1 <0>         0.1022
     42 H15        -0.6006    0.5392   -1.7827 H         1 <0>         0.0954
     43 H16        -2.1551    1.0743   -1.0678 H         1 <0>         0.0975
     44 H17        -0.8008   -1.7027   -0.4501 H         1 <0>         0.4017
     45 H18        -1.8481   -2.3094    0.7151 H         1 <0>         0.4056
     46 H19        -1.4142    4.3295   -1.9322 H         1 <0>         0.3835
@<TRIPOS>BOND
     1    1    6 ar
     2    1    2 ar
     3    1   30 1
     4    2    3 ar
     5    2   31 1
     6    3    4 ar
     7    3    7 1
     8    4    5 ar
     9    4   32 1
    10    5    6 ar
    11    6   33 1
    12    7   15 ar
    13    7    8 ar
    14    8    9 ar
    15    9   10 ar
    16    9   19 1
    17   10   14 ar
    18   10   11 1
    19   11   18 1
    20   11   12 2
    21   12   13 1
    22   12   16 1
    23   13   14 1
    24   14   15 ar
    25   16   17 1
    26   16   34 1
    27   16   35 1
    28   17   18 1
    29   17   36 1
    30   17   37 1
    31   18   38 1
    32   18   39 1
    33   19   24 1
    34   19   20 1
    35   20   21 1
    36   20   40 1
    37   20   41 1
    38   21   22 1
    39   21   23 1
    40   21   29 1
    41   23   24 1
    42   23   42 1
    43   23   43 1
    44   24   25 1
    45   24   26 1
    46   26   27 2
    47   26   28 am
    48   28   44 1
    49   28   45 1
    50   29   46 1
@<TRIPOS>MOLECULE
ZINC38752185
   45    48     0     0     0
SMALL
USER_CHARGES

@<TRIPOS>ATOM
      1 C1         -0.0166    1.3749    0.0096 C.ar      1 <0>        -0.1544
      2 C2          1.1694    2.0931    0.0021 C.ar      1 <0>        -0.0446
      3 C3          2.3865    1.4416   -0.0130 C.ar      1 <0>        -0.1651
      4 C4          2.4252    0.0557   -0.0208 C.ar      1 <0>         0.1975
      5 C5          1.2234   -0.6735   -0.0133 C.ar      1 <0>        -0.1978
      6 C6          0.0021   -0.0041    0.0020 C.ar      1 <0>        -0.0133
      7 C7          1.3009   -2.1453   -0.0214 C.2       1 <0>         0.5641
      8 O1          0.2913   -2.8230   -0.0158 O.2       1 <0>        -0.4870
      9 N1          2.5223   -2.7219   -0.0358 N.am      1 <0>        -0.5553
     10 C8          3.6419   -1.9818   -0.0425 C.2       1 <0>         0.7057
     11 O2          4.7159   -2.5515   -0.0555 O.2       1 <0>        -0.5389
     12 N2          3.6268   -0.6377   -0.0356 N.am      1 <0>        -0.6449
     13 H1          4.4640   -0.1479   -0.0410 H         1 <0>         0.4357
     14 C9          2.6269   -4.1831   -0.0436 C.3       1 <0>         0.1095
     15 C10         2.6496   -4.6850   -1.4888 C.3       1 <0>        -0.1192
     16 C11         2.7588   -6.2111   -1.4970 C.3       1 <0>        -0.1333
     17 C12         2.7812   -6.7055   -2.9204 C.2       1 <0>         0.5231
     18 O3          2.7161   -5.9150   -3.8380 O.2       1 <0>        -0.5203
     19 N3          2.8735   -8.0260   -3.1738 N.am      1 <0>        -0.7284
     20 C13         2.8952   -8.5066   -4.5575 C.3       1 <0>         0.4212
     21 H2          3.5587   -7.8974   -5.1714 H         1 <0>         0.1364
     22 N4          3.2728   -9.9251   -4.6185 N.pl3     1 <0>        -0.7401
     23 C14         2.3390  -10.8187   -5.1410 C.ar      1 <0>         0.1698
     24 C15         2.5217  -12.2063   -5.2783 C.ar      1 <0>        -0.1542
     25 C16         1.5359  -13.0056   -5.8083 C.ar      1 <0>        -0.0783
     26 C17         0.3302  -12.4717   -6.2243 C.ar      1 <0>        -0.1426
     27 C18         0.1222  -11.1080   -6.1011 C.ar      1 <0>        -0.0443
     28 C19         1.1099  -10.3090   -5.5708 C.ar      1 <0>        -0.1353
     29 S1          1.2005   -8.5579   -5.2662 S.3       1 <0>        -0.1365
     30 H3         -0.9610    1.8986    0.0260 H         1 <0>         0.1385
     31 H4          1.1408    3.1727    0.0079 H         1 <0>         0.1390
     32 H5          3.3052    2.0094   -0.0191 H         1 <0>         0.1408
     33 H6         -0.9234   -0.5607    0.0079 H         1 <0>         0.1458
     34 H7          3.5454   -4.4843    0.4601 H         1 <0>         0.1033
     35 H8          1.7701   -4.6115    0.4764 H         1 <0>         0.1026
     36 H9          1.7311   -4.3838   -1.9925 H         1 <0>         0.0790
     37 H10         3.5064   -4.2566   -2.0088 H         1 <0>         0.0793
     38 H11         3.6774   -6.5123   -0.9933 H         1 <0>         0.1026
     39 H12         1.9020   -6.6395   -0.9770 H         1 <0>         0.1033
     40 H13         2.9255   -8.6582   -2.4399 H         1 <0>         0.4055
     41 H14         4.1398  -10.2287   -4.3071 H         1 <0>         0.4143
     42 H15         3.4531  -12.6524   -4.9621 H         1 <0>         0.1229
     43 H16         1.7062  -14.0681   -5.9008 H         1 <0>         0.1293
     44 H17        -0.4374  -13.1082   -6.6391 H         1 <0>         0.1339
     45 H18        -0.8131  -10.6723   -6.4201 H         1 <0>         0.1308
@<TRIPOS>BOND
     1    1    6 ar
     2    1    2 ar
     3    1   30 1
     4    2    3 ar
     5    2   31 1
     6    3    4 ar
     7    3   32 1
     8    4   12 1
     9    4    5 ar
    10    5    6 ar
    11    5    7 1
    12    6   33 1
    13    7    8 2
    14    7    9 am
    15    9   10 am
    16    9   14 1
    17   10   11 2
    18   10   12 am
    19   12   13 1
    20   14   15 1
    21   14   34 1
    22   14   35 1
    23   15   16 1
    24   15   36 1
    25   15   37 1
    26   16   17 1
    27   16   38 1
    28   16   39 1
    29   17   18 2
    30   17   19 am
    31   19   20 1
    32   19   40 1
    33   20   21 1
    34   20   29 1
    35   20   22 1
    36   22   23 1
    37   22   41 1
    38   23   28 ar
    39   23   24 ar
    40   24   25 ar
    41   24   42 1
    42   25   26 ar
    43   25   43 1
    44   26   27 ar
    45   26   44 1
    46   27   28 ar
    47   27   45 1
    48   28   29 1
@<TRIPOS>MOLECULE
ZINC04724044
   46    49     0     0     0
SMALL
USER_CHARGES

@<TRIPOS>ATOM
      1 C1         -3.4761   -1.2235    1.5478 C.3       1 <0>        -0.1105
      2 C2         -2.2354   -1.9555    1.1051 C.ar      1 <0>        -0.1138
      3 C3         -2.2292   -2.6443   -0.0922 C.ar      1 <0>        -0.1000
      4 C4         -1.0913   -3.3161   -0.4991 C.ar      1 <0>        -0.1326
      5 C5          0.0440   -3.3009    0.2906 C.ar      1 <0>        -0.1044
      6 C6          0.0443   -2.6146    1.4888 C.ar      1 <0>        -0.1278
      7 C7         -1.0953   -1.9334    1.8976 C.ar      1 <0>         0.1439
      8 N1         -1.0963   -1.2322    3.1075 N.am      1 <0>        -0.6598
      9 C8          0.0636   -0.7850    3.6282 C.2       1 <0>         0.5931
     10 O1          1.0989   -0.9010    2.9976 O.2       1 <0>        -0.5051
     11 C9          0.0783   -0.1807    4.9074 C.2       1 <0>        -0.2974
     12 C10         0.1600   -0.9722    5.9868 C.2       1 <0>         0.2201
     13 N2          0.1914   -0.4675    7.2638 N.pl3     1 <0>        -0.6105
     14 C11         0.3997    0.8976    7.4062 C.2       1 <0>         0.4940
     15 N3          0.6892    1.5990    8.4677 N.2       1 <0>        -0.5475
     16 C12         0.8058    2.8883    8.1339 C.2       1 <0>         0.2185
     17 N4          0.5887    3.0217    6.8486 N.2       1 <0>        -0.2932
     18 N5          0.3197    1.7473    6.3522 N.pl3     1 <0>        -0.3847
     19 C13         0.0077    1.3207    4.9922 C.3       1 <0>         0.2834
     20 H1          0.7252    1.7580    4.2979 H         1 <0>         0.1110
     21 C14        -1.3823    1.7793    4.6335 C.ar      1 <0>        -0.1168
     22 C15        -2.4640    1.3552    5.3830 C.ar      1 <0>        -0.0791
     23 C16        -3.7392    1.7738    5.0560 C.ar      1 <0>        -0.1452
     24 C17        -3.9340    2.6209    3.9747 C.ar      1 <0>         0.1209
     25 C18        -2.8470    3.0454    3.2245 C.ar      1 <0>        -0.1412
     26 C19        -1.5732    2.6281    3.5588 C.ar      1 <0>        -0.0724
     27 O2         -5.1875    3.0338    3.6507 O.3       1 <0>        -0.4981
     28 C20         0.2187   -2.4654    5.7922 C.3       1 <0>        -0.1362
     29 H2         -3.4517   -0.2030    1.1657 H         1 <0>         0.0726
     30 H3         -4.3573   -1.7354    1.1611 H         1 <0>         0.0719
     31 H4         -3.5166   -1.2029    2.6368 H         1 <0>         0.0569
     32 H5         -3.1143   -2.6585   -0.7110 H         1 <0>         0.1257
     33 H6         -1.0892   -3.8543   -1.4355 H         1 <0>         0.1230
     34 H7          0.9312   -3.8267   -0.0301 H         1 <0>         0.1252
     35 H8          0.9311   -2.6034    2.1051 H         1 <0>         0.1446
     36 H9         -1.9318   -1.0677    3.5720 H         1 <0>         0.4108
     37 H10         0.0724   -1.0424    8.0360 H         1 <0>         0.4409
     38 H11         1.0416    3.6922    8.8154 H         1 <0>         0.2266
     39 H12        -2.3118    0.6958    6.2247 H         1 <0>         0.1179
     40 H13        -4.5838    1.4417    5.6414 H         1 <0>         0.1318
     41 H14        -2.9960    3.7048    2.3822 H         1 <0>         0.1344
     42 H15        -0.7262    2.9618    2.9777 H         1 <0>         0.1307
     43 H16        -5.4572    3.8529    4.0882 H         1 <0>         0.3949
     44 H17         1.2502   -2.7680    5.6118 H         1 <0>         0.1010
     45 H18        -0.1548   -2.9634    6.6870 H         1 <0>         0.0893
     46 H19        -0.3968   -2.7449    4.9371 H         1 <0>         0.0932
@<TRIPOS>BOND
     1    1    2 1
     2    1   29 1
     3    1   30 1
     4    1   31 1
     5    2    7 ar
     6    2    3 ar
     7    3    4 ar
     8    3   32 1
     9    4    5 ar
    10    4   33 1
    11    5    6 ar
    12    5   34 1
    13    6    7 ar
    14    6   35 1
    15    7    8 1
    16    8    9 am
    17    8   36 1
    18    9   10 2
    19    9   11 1
    20   11   19 1
    21   11   12 2
    22   12   13 1
    23   12   28 1
    24   13   14 1
    25   13   37 1
    26   14   18 1
    27   14   15 2
    28   15   16 1
    29   16   17 2
    30   16   38 1
    31   17   18 1
    32   18   19 1
    33   19   20 1
    34   19   21 1
    35   21   26 ar
    36   21   22 ar
    37   22   23 ar
    38   22   39 1
    39   23   24 ar
    40   23   40 1
    41   24   25 ar
    42   24   27 1
    43   25   26 ar
    44   25   41 1
    45   26   42 1
    46   27   43 1
    47   28   44 1
    48   28   45 1
    49   28   46 1
@<TRIPOS>MOLECULE
ZINC13471553
   38    41     0     0     0
SMALL
USER_CHARGES

@<TRIPOS>ATOM
      1 C1         -0.0166    1.3747    0.0096 C.ar      1 <0>        -0.0750
      2 C2          1.1716    2.0888    0.0021 C.ar      1 <0>        -0.0710
      3 C3          2.3849    1.4333   -0.0130 C.ar      1 <0>        -0.0728
      4 C4          2.4239    0.0438   -0.0208 C.ar      1 <0>         0.0715
      5 C5          1.2204   -0.6770   -0.0131 C.ar      1 <0>        -0.0389
      6 C6          0.0021   -0.0041    0.0020 C.ar      1 <0>        -0.0516
      7 C7          1.5973   -2.1049   -0.0243 C.2       1 <0>        -0.0012
      8 C8          2.9931   -2.1368   -0.0378 C.2       1 <0>         0.4589
      9 N1          3.4675   -0.8667   -0.0356 N.pl3     1 <0>        -0.3890
     10 C9          4.8877   -0.5071   -0.0479 C.3       1 <0>         0.3299
     11 H1          5.0041    0.5417   -0.3212 H         1 <0>         0.1841
     12 C10         5.4947   -0.7568    1.3092 C.ar      1 <0>        -0.1543
     13 C11         5.2417   -0.2605    2.5664 C.ar      1 <0>        -0.0668
     14 C12         5.9919   -0.6971    3.6456 C.ar      1 <0>        -0.0724
     15 C13         6.9963   -1.6318    3.4641 C.ar      1 <0>        -0.0921
     16 C14         7.2588   -2.1365    2.2071 C.ar      1 <0>        -0.0239
     17 C15         6.5070   -1.7012    1.1153 C.ar      1 <0>        -0.1711
     18 C16         6.5363   -2.0358   -0.3203 C.2       1 <0>         0.5208
     19 O1          7.3001   -2.8274   -0.8357 O.2       1 <0>        -0.3975
     20 O2          5.5941   -1.3356   -0.9752 O.3       1 <0>        -0.3143
     21 O3          3.7500   -3.2545   -0.0506 O.3       1 <0>        -0.4482
     22 N2          0.7685   -3.1559   -0.0214 N.2       1 <0>        -0.0344
     23 N3          1.2462   -4.3541   -0.0324 N.pl3     1 <0>        -0.4097
     24 C17         0.4117   -5.4125   -0.0295 C.2       1 <0>         0.5098
     25 S1          1.0457   -7.0026   -0.0441 S.2       1 <0>        -0.4076
     26 N4         -0.9220   -5.2189   -0.0150 N.pl3     1 <0>        -0.7499
     27 H2         -0.9601    1.9000    0.0259 H         1 <0>         0.1570
     28 H3          1.1469    3.1685    0.0077 H         1 <0>         0.1590
     29 H4          3.3046    1.9995   -0.0191 H         1 <0>         0.1507
     30 H5         -0.9243   -0.5592    0.0082 H         1 <0>         0.1538
     31 H6          4.4590    0.4693    2.7120 H         1 <0>         0.1420
     32 H7          5.7926   -0.3064    4.6326 H         1 <0>         0.1518
     33 H8          7.5775   -1.9674    4.3102 H         1 <0>         0.1531
     34 H9          8.0433   -2.8658    2.0688 H         1 <0>         0.1511
     35 H10         3.9624   -3.5756   -0.9377 H         1 <0>         0.4498
     36 H11        -1.2813   -4.3179   -0.0067 H         1 <0>         0.4154
     37 H12        -1.5227   -5.9805   -0.0128 H         1 <0>         0.4502
     38 H13         2.2061   -4.4935   -0.0429 H         1 <0>         0.4328
@<TRIPOS>BOND
     1    1    6 ar
     2    1    2 ar
     3    1   27 1
     4    2    3 ar
     5    2   28 1
     6    3    4 ar
     7    3   29 1
     8    4    9 1
     9    4    5 ar
    10    5    6 ar
    11    5    7 1
    12    6   30 1
    13    7    8 2
    14    7   22 1
    15    8    9 1
    16    8   21 1
    17    9   10 1
    18   10   11 1
    19   10   20 1
    20   10   12 1
    21   12   17 ar
    22   12   13 ar
    23   13   14 ar
    24   13   31 1
    25   14   15 ar
    26   14   32 1
    27   15   16 ar
    28   15   33 1
    29   16   17 ar
    30   16   34 1
    31   17   18 1
    32   18   19 2
    33   18   20 1
    34   21   35 1
    35   22   23 2
    36   23   24 1
    37   23   38 1
    38   24   25 2
    39   24   26 1
    40   26   36 1
    41   26   37 1
@<TRIPOS>MOLECULE
ZINC66240087
   40    42     0     0     0
SMALL
USER_CHARGES

@<TRIPOS>ATOM
      1 C1          0.1535    1.3727    0.6370 C.ar      1 <0>        -0.1189
      2 C2          1.1728    2.0885    0.0364 C.ar      1 <0>        -0.0976
      3 C3          2.2149    1.4259   -0.5852 C.ar      1 <0>        -0.1690
      4 C4          2.2405    0.0409   -0.6072 C.ar      1 <0>         0.0750
      5 C5          1.2142   -0.6810   -0.0019 C.ar      1 <0>         0.1366
      6 C6          0.1715   -0.0091    0.6195 C.ar      1 <0>        -0.0998
      7 N1          1.2347   -2.0813   -0.0210 N.am      1 <0>        -0.6583
      8 C7          0.0836   -2.7737    0.0885 C.2       1 <0>         0.5622
      9 O1         -0.9807   -2.1856    0.1024 O.2       1 <0>        -0.5112
     10 C8          0.1147   -4.2459    0.1915 C.ar      1 <0>        -0.1405
     11 C9          1.3371   -4.9229    0.1814 C.ar      1 <0>        -0.0581
     12 C10         1.3624   -6.2963    0.2776 C.ar      1 <0>        -0.1122
     13 C11         0.1732   -7.0096    0.3847 C.ar      1 <0>         0.1882
     14 C12        -1.0453   -6.3390    0.3950 C.ar      1 <0>        -0.1555
     15 C13        -1.0778   -4.9653    0.3050 C.ar      1 <0>        -0.0252
     16 N2          0.2027   -8.4033    0.4817 N.pl3     1 <0>        -0.3497
     17 C14        -0.6548   -9.1686    1.2062 C.2       1 <0>         0.4339
     18 C15        -0.2705  -10.4941    1.0236 C.2       1 <0>        -0.2540
     19 C16         0.8505  -10.4859    0.1610 C.2       1 <0>         0.1442
     20 N3          1.1166   -9.2497   -0.1555 N.2       1 <0>        -0.2871
     21 C17        -0.8921  -11.6479    1.6007 C.1       1 <0>         0.2923
     22 N4         -1.3852  -12.5632    2.0585 N.1       1 <0>        -0.4357
     23 N5         -1.7075   -8.7172    1.9779 N.pl3     1 <0>        -0.8316
     24 O2          3.2645   -0.6122   -1.2185 O.3       1 <0>        -0.3262
     25 C18         4.2814    0.1929   -1.8184 C.3       1 <0>         0.4147
     26 F1          3.7117    1.0053   -2.8046 F         1 <0>        -0.1959
     27 F2          4.8781    0.9957   -0.8403 F         1 <0>        -0.1966
     28 H1         -0.6563    1.8947    1.1249 H         1 <0>         0.1334
     29 H2          1.1545    3.1682    0.0525 H         1 <0>         0.1320
     30 H3          3.0090    1.9881   -1.0540 H         1 <0>         0.1380
     31 H4         -0.6257   -0.5656    1.0898 H         1 <0>         0.1563
     32 H5          2.0774   -2.5528   -0.1130 H         1 <0>         0.4146
     33 H6          2.2609   -4.3697    0.0979 H         1 <0>         0.1389
     34 H7          2.3068   -6.8202    0.2695 H         1 <0>         0.1480
     35 H8         -1.9668   -6.8961    0.4783 H         1 <0>         0.1397
     36 H9         -2.0240   -4.4449    0.3180 H         1 <0>         0.1520
     37 H10         1.3913  -11.3560   -0.1807 H         1 <0>         0.2037
     38 H11        -1.8914   -7.7668    2.0390 H         1 <0>         0.4108
     39 H12        -2.2629   -9.3506    2.4588 H         1 <0>         0.4246
     40 H13         5.0359   -0.4514   -2.2696 H         1 <0>         0.1840
@<TRIPOS>BOND
     1    1    6 ar
     2    1    2 ar
     3    1   28 1
     4    2    3 ar
     5    2   29 1
     6    3    4 ar
     7    3   30 1
     8    4    5 ar
     9    4   24 1
    10    5    6 ar
    11    5    7 1
    12    6   31 1
    13    7    8 am
    14    7   32 1
    15    8    9 2
    16    8   10 1
    17   10   15 ar
    18   10   11 ar
    19   11   12 ar
    20   11   33 1
    21   12   13 ar
    22   12   34 1
    23   13   14 ar
    24   13   16 1
    25   14   15 ar
    26   14   35 1
    27   15   36 1
    28   16   20 1
    29   16   17 1
    30   17   18 2
    31   17   23 1
    32   18   19 1
    33   18   21 1
    34   19   20 2
    35   19   37 1
    36   21   22 3
    37   23   38 1
    38   23   39 1
    39   24   25 1
    40   25   26 1
    41   25   27 1
    42   25   40 1
@<TRIPOS>MOLECULE
ZINC06933983
   59    60     0     0     0
SMALL
USER_CHARGES
4-(2-amino-3-methyl-pentanoyl)-N,N-bis[4-(2-amino-3-methyl-pentanoyl)-2-methyl-piperazin-6-yl]-2-methyl-piperazine-1-carboxamide
@<TRIPOS>ATOM
      1 C1          4.1626    6.3647   -4.0248 C.3       1 <0>        -0.1610
      2 C2          3.6227    6.2880   -2.5953 C.3       1 <0>        -0.1295
      3 C3          2.1644    5.8259   -2.6250 C.3       1 <0>        -0.1072
      4 H1          1.5873    6.4859   -3.2728 H         1 <0>         0.1061
      5 C4          2.0937    4.3949   -3.1617 C.3       1 <0>        -0.1695
      6 C5          1.5869    5.8686   -1.2088 C.3       1 <0>         0.0091
      7 H2          2.2031    5.2602   -0.5467 H         1 <0>         0.1614
      8 C6          0.1803    5.3282   -1.2234 C.2       1 <0>         0.5067
      9 O1         -0.7600    6.0873   -1.3266 O.2       1 <0>        -0.5184
     10 N1         -0.0329    4.0012   -1.1219 N.am      1 <0>        -0.5838
     11 C7          1.0913    3.0763   -0.9203 C.3       1 <0>         0.0757
     12 C8          0.8172    2.2380    0.3344 C.3       1 <0>         0.0948
     13 N2         -0.5435    1.6900    0.2451 N.am      1 <0>        -0.6325
     14 C9         -1.6671    2.6144    0.0380 C.3       1 <0>         0.1529
     15 H3         -1.7646    3.2713    0.9023 H         1 <0>         0.0773
     16 C10        -1.3937    3.4533   -1.2112 C.3       1 <0>         0.0957
     17 C11        -2.9590    1.8175   -0.1540 C.3       1 <0>        -0.1396
     18 C12        -0.7566    0.3630    0.3458 C.2       1 <0>         0.7072
     19 O2         -1.8924   -0.0702    0.3699 O.2       1 <0>        -0.5634
     20 N3          0.2893   -0.4837    0.4198 N.am      1 <0>        -0.7416
     21 C13         0.0617   -1.9309    0.4179 C.3       1 <0>         0.1627
     22 C14        -0.2328   -2.4028    1.8432 C.3       1 <0>        -0.1283
     23 C15        -0.4705   -3.9142    1.8412 C.3       1 <0>        -0.1189
     24 C16         0.7778   -4.6261    1.3160 C.3       1 <0>        -0.1238
     25 C17         1.0723   -4.1543   -0.1094 C.3       1 <0>        -0.1170
     26 C18         1.3100   -2.6428   -0.1074 C.3       1 <0>        -0.1247
     27 H4          4.1028    5.3803   -4.4891 H         1 <0>         0.0687
     28 H5          3.5682    7.0745   -4.6001 H         1 <0>         0.0624
     29 H6          5.2015    6.6939   -4.0037 H         1 <0>         0.0702
     30 H7          3.6825    7.2724   -2.1310 H         1 <0>         0.0598
     31 H8          4.2171    5.5782   -2.0200 H         1 <0>         0.0839
     32 H9          1.0512    4.0848   -3.2332 H         1 <0>         0.0713
     33 H10         2.5534    4.3541   -4.1492 H         1 <0>         0.0890
     34 H11         2.6261    3.7264   -2.4852 H         1 <0>         0.0752
     35 H12         2.0124    3.6437   -0.7872 H         1 <0>         0.0983
     36 H13         1.1847    2.4201   -1.7856 H         1 <0>         0.0978
     37 H14         0.9007    2.8674    1.2204 H         1 <0>         0.0778
     38 H15         1.5372    1.4217    0.3934 H         1 <0>         0.0984
     39 H16        -2.1136    4.2696   -1.2701 H         1 <0>         0.1137
     40 H17        -1.4780    2.8263   -2.0988 H         1 <0>         0.0885
     41 H18        -3.2040    1.2944    0.7704 H         1 <0>         0.0881
     42 H19        -3.7705    2.4977   -0.4126 H         1 <0>         0.0514
     43 H20        -2.8229    1.0926   -0.9565 H         1 <0>         0.0738
     44 H21         1.1928   -0.1349    0.4743 H         1 <0>         0.3897
     45 H22        -0.7872   -2.1644   -0.2248 H         1 <0>         0.0893
     46 H23         0.6161   -2.1693    2.4859 H         1 <0>         0.0609
     47 H24        -1.1221   -1.8956    2.2174 H         1 <0>         0.0686
     48 H25        -1.3194   -4.1476    1.1985 H         1 <0>         0.0657
     49 H26        -0.6803   -4.2503    2.8566 H         1 <0>         0.0668
     50 H27         0.6084   -5.7029    1.3145 H         1 <0>         0.0670
     51 H28         1.6266   -4.3927    1.9587 H         1 <0>         0.0627
     52 H29         0.2234   -4.3877   -0.7520 H         1 <0>         0.0667
     53 H30         1.9616   -4.6614   -0.4835 H         1 <0>         0.0695
     54 H31         1.5198   -2.3067   -1.1228 H         1 <0>         0.0668
     55 H32         2.1589   -2.4094    0.5353 H         1 <0>         0.0667
     56 H33         1.0083    7.8410   -1.3247 H         1 <0>         0.4452
     57 H34         1.2565    7.3039    0.2296 H         1 <0>         0.4424
     58 N4          1.5979    7.2619   -0.7292 N.4       1 <0>        -0.6313
     59 H35         2.5593    7.6213   -0.7585 H         1 <0>         0.4443
@<TRIPOS>BOND
     1    1    2 1
     2    1   27 1
     3    1   28 1
     4    1   29 1
     5    2    3 1
     6    2   30 1
     7    2   31 1
     8    3    4 1
     9    3    5 1
    10    3    6 1
    11    5   32 1
    12    5   33 1
    13    5   34 1
    14    6    7 1
    15    6    8 1
    16    6   58 1
    17    8    9 2
    18    8   10 am
    19   10   16 1
    20   10   11 1
    21   11   12 1
    22   11   35 1
    23   11   36 1
    24   12   13 1
    25   12   37 1
    26   12   38 1
    27   13   14 1
    28   13   18 am
    29   14   15 1
    30   14   16 1
    31   14   17 1
    32   16   39 1
    33   16   40 1
    34   17   41 1
    35   17   42 1
    36   17   43 1
    37   18   19 2
    38   18   20 am
    39   20   21 1
    40   20   44 1
    41   21   26 1
    42   21   22 1
    43   21   45 1
    44   22   23 1
    45   22   46 1
    46   22   47 1
    47   23   24 1
    48   23   48 1
    49   23   49 1
    50   24   25 1
    51   24   50 1
    52   24   51 1
    53   25   26 1
    54   25   52 1
    55   25   53 1
    56   26   54 1
    57   26   55 1
    58   56   58 1
    59   57   58 1
    60   58   59 1
@<TRIPOS>MOLECULE
ZINC30498867
   52    53     0     0     0
SMALL
USER_CHARGES
(2S)-N-(2-cyanophenyl)-2-[[(1S)-1-[4-(propanoylamino)phenyl]ethyl]amino]propanamide
@<TRIPOS>ATOM
      1 C1          7.7724   -8.4034    1.0762 C.3       1 <0>        -0.1441
      2 C2          7.8551   -7.0115    1.7061 C.3       1 <0>        -0.1443
      3 C3          6.7432   -6.1491    1.1666 C.2       1 <0>         0.5161
      4 O1          5.9615   -6.6031    0.3580 O.2       1 <0>        -0.5150
      5 N1          6.6174   -4.8734    1.5828 N.am      1 <0>        -0.6963
      6 C4          5.5201   -4.1085    1.1721 C.ar      1 <0>         0.1899
      7 C5          4.2809   -4.7093    0.9935 C.ar      1 <0>        -0.1177
      8 C6          3.1998   -3.9516    0.5876 C.ar      1 <0>        -0.0629
      9 C7          3.3504   -2.5961    0.3592 C.ar      1 <0>        -0.1674
     10 C8          4.5843   -1.9959    0.5311 C.ar      1 <0>        -0.0953
     11 C9          5.6680   -2.7470    0.9419 C.ar      1 <0>        -0.1389
     12 C10         2.1688   -1.7725   -0.0841 C.3       1 <0>         0.0941
     13 H1          1.2350   -2.2809    0.1981 H         1 <0>         0.1411
     14 C11         2.2381   -1.5541   -1.5969 C.3       1 <0>        -0.1803
     15 N2          2.1937   -0.4727    0.5999 N.4       1 <0>        -0.5315
     16 C12         0.8451    0.1034    0.6849 C.3       1 <0>         0.0122
     17 H2          0.3093   -0.1625   -0.2383 H         1 <0>         0.1638
     18 C13         0.1279   -0.4564    1.9150 C.3       1 <0>        -0.1814
     19 C14         0.9456    1.6026    0.8009 C.2       1 <0>         0.5116
     20 O2          2.0336    2.1383    0.8118 O.2       1 <0>        -0.5074
     21 N3         -0.1737    2.3484    0.8869 N.am      1 <0>        -0.6619
     22 C15        -0.0809    3.7219    1.1065 C.ar      1 <0>         0.1778
     23 C16         0.9362    4.2342    1.8998 C.ar      1 <0>        -0.1195
     24 C17         1.0295    5.5953    2.1117 C.ar      1 <0>        -0.0663
     25 C18         0.1057    6.4582    1.5449 C.ar      1 <0>        -0.1188
     26 C19        -0.9144    5.9670    0.7589 C.ar      1 <0>        -0.0482
     27 C20        -1.0185    4.5926    0.5312 C.ar      1 <0>        -0.0444
     28 C21        -2.0762    4.0757   -0.2841 C.1       1 <0>         0.2393
     29 N4         -2.9153    3.6656   -0.9308 N.1       1 <0>        -0.3946
     30 H3          8.5840   -9.0329    1.4700 H         1 <0>         0.0697
     31 H4          7.8716   -8.3181   -0.0160 H         1 <0>         0.0641
     32 H5          6.8022   -8.8599    1.3218 H         1 <0>         0.0637
     33 H6          7.7559   -7.0968    2.7983 H         1 <0>         0.1020
     34 H7          8.8253   -6.5550    1.4606 H         1 <0>         0.1010
     35 H8          7.3774   -4.4336    2.2454 H         1 <0>         0.4433
     36 H9          4.1627   -5.7680    1.1714 H         1 <0>         0.1435
     37 H10         2.2359   -4.4183    0.4481 H         1 <0>         0.1355
     38 H11         4.6996   -0.9378    0.3479 H         1 <0>         0.1252
     39 H12         6.6305   -2.2768    1.0800 H         1 <0>         0.1380
     40 H13         1.3756   -0.9529   -1.9204 H         1 <0>         0.0798
     41 H14         2.2195   -2.5274   -2.1091 H         1 <0>         0.1105
     42 H15         3.1690   -1.0250   -1.8487 H         1 <0>         0.0860
     43 H16         2.5868   -0.6022    1.6191 H         1 <0>         0.4532
     44 H17        -0.8820   -0.0250    1.9786 H         1 <0>         0.1105
     45 H18         0.6956   -0.1960    2.8205 H         1 <0>         0.0939
     46 H19         0.0545   -1.5507    1.8302 H         1 <0>         0.1002
     47 H20        -1.1604    1.8733    0.7838 H         1 <0>         0.4466
     48 H21         1.6579    3.5677    2.3486 H         1 <0>         0.1416
     49 H22         1.8252    5.9895    2.7265 H         1 <0>         0.1409
     50 H23         0.1850    7.5209    1.7201 H         1 <0>         0.1435
     51 H24        -1.6325    6.6437    0.3198 H         1 <0>         0.1440
     52 H25         2.8397    0.2222    0.0433 H         1 <0>         0.4539
@<TRIPOS>BOND
     1    1    2 1
     2    1   30 1
     3    1   31 1
     4    1   32 1
     5    2    3 1
     6    2   33 1
     7    2   34 1
     8    3    4 2
     9    3    5 am
    10    5    6 1
    11    5   35 1
    12    6   11 ar
    13    6    7 ar
    14    7    8 ar
    15    7   36 1
    16    8    9 ar
    17    8   37 1
    18    9   10 ar
    19    9   12 1
    20   10   11 ar
    21   10   38 1
    22   11   39 1
    23   12   13 1
    24   12   14 1
    25   12   15 1
    26   14   40 1
    27   14   41 1
    28   14   42 1
    29   15   16 1
    30   15   43 1
    31   15   52 1
    32   16   17 1
    33   16   18 1
    34   16   19 1
    35   18   44 1
    36   18   45 1
    37   18   46 1
    38   19   20 2
    39   19   21 am
    40   21   22 1
    41   21   47 1
    42   22   27 ar
    43   22   23 ar
    44   23   24 ar
    45   23   48 1
    46   24   25 ar
    47   24   49 1
    48   25   26 ar
    49   25   50 1
    50   26   27 ar
    51   26   51 1
    52   27   28 1
    53   28   29 3
@<TRIPOS>MOLECULE
ZINC55029228
   65    66     0     0     0
SMALL
USER_CHARGES

@<TRIPOS>ATOM
      1 C1         -0.5549    1.4146    0.1360 C.3       1 <0>        -0.1785
      2 C2          0.0021   -0.0041    0.0020 C.3       1 <0>         0.0049
      3 H1          0.7278   -0.0342   -0.8107 H         1 <0>         0.1571
      4 C3          0.6739   -0.4037    1.2904 C.2       1 <0>         0.5012
      5 O1          0.0415   -0.9781    2.1513 O.2       1 <0>        -0.5206
      6 N1          1.9775   -0.1229    1.4860 N.am      1 <0>        -0.7023
      7 C4          2.6306   -0.5115    2.7384 C.3       1 <0>         0.1104
      8 C5          4.0978   -0.0788    2.7041 C.3       1 <0>        -0.1298
      9 C6          4.7799   -0.4846    4.0122 C.3       1 <0>        -0.0928
     10 C7          6.2738   -0.1648    3.9289 C.3       1 <0>        -0.1510
     11 C8          4.1563    0.2908    5.1744 C.3       1 <0>        -0.1554
     12 N2         -1.0961   -0.9360   -0.2872 N.4       1 <0>        -0.3716
     13 C9         -1.7472   -0.5476   -1.5440 C.3       1 <0>        -0.0054
     14 C10        -2.9424   -1.4657   -1.8087 C.3       1 <0>        -0.1546
     15 C11        -2.4540   -2.9136   -1.9111 C.3       1 <0>         0.1564
     16 C12        -1.7116   -3.2838   -0.6238 C.3       1 <0>        -0.1568
     17 C13        -0.5620   -2.2983   -0.4031 C.3       1 <0>        -0.0083
     18 N3         -3.6019   -3.8063   -2.0886 N.am      1 <0>        -0.7458
     19 C14        -3.4393   -5.0018   -2.6892 C.2       1 <0>         0.7062
     20 O2         -2.3399   -5.3394   -3.0838 O.2       1 <0>        -0.5835
     21 N4         -4.4953   -5.8232   -2.8525 N.am      1 <0>        -0.7364
     22 C15        -4.3185   -7.1226   -3.5055 C.3       1 <0>         0.1622
     23 C16        -3.8622   -8.1547   -2.4723 C.3       1 <0>        -0.1279
     24 C17        -3.6775   -9.5118   -3.1542 C.3       1 <0>        -0.1185
     25 C18        -5.0054   -9.9585   -3.7690 C.3       1 <0>        -0.1244
     26 C19        -5.4618   -8.9265   -4.8022 C.3       1 <0>        -0.1172
     27 C20        -5.6465   -7.5693   -4.1203 C.3       1 <0>        -0.1268
     28 H2          0.2599    2.1061    0.3506 H         1 <0>         0.1111
     29 H3         -1.0408    1.7037   -0.7959 H         1 <0>         0.0985
     30 H4         -1.2806    1.4448    0.9488 H         1 <0>         0.0908
     31 H5          2.4833    0.3364    0.7974 H         1 <0>         0.4099
     32 H6          2.1284   -0.0268    3.5757 H         1 <0>         0.0831
     33 H7          2.5736   -1.5934    2.8575 H         1 <0>         0.0790
     34 H8          4.6000   -0.5635    1.8669 H         1 <0>         0.0735
     35 H9          4.1549    1.0031    2.5850 H         1 <0>         0.0744
     36 H10         4.6458   -1.5540    4.1754 H         1 <0>         0.0749
     37 H11         6.4079    0.9045    3.7657 H         1 <0>         0.0572
     38 H12         6.7597   -0.4539    4.8608 H         1 <0>         0.0616
     39 H13         6.7180   -0.7172    3.1009 H         1 <0>         0.0566
     40 H14         3.0921    0.0630    5.2337 H         1 <0>         0.0550
     41 H15         4.6423    0.0017    6.1063 H         1 <0>         0.0615
     42 H16         4.2904    1.3601    5.0112 H         1 <0>         0.0574
     43 H17        -2.0913    0.4841   -1.4708 H         1 <0>         0.1412
     44 H18        -1.0343   -0.6345   -2.3640 H         1 <0>         0.1359
     45 H19        -3.6561   -1.3794   -0.9893 H         1 <0>         0.0957
     46 H20        -3.4234   -1.1769   -2.7432 H         1 <0>         0.1226
     47 H21        -1.7797   -3.0115   -2.7618 H         1 <0>         0.1064
     48 H22        -2.3998   -3.2352    0.2201 H         1 <0>         0.0913
     49 H23        -1.3129   -4.2944   -0.7115 H         1 <0>         0.1187
     50 H24         0.1256   -2.3478   -1.2474 H         1 <0>         0.1319
     51 H25        -0.0312   -2.5591    0.5125 H         1 <0>         0.1348
     52 H26        -4.4790   -3.5371   -1.7738 H         1 <0>         0.4015
     53 H27        -5.3724   -5.5539   -2.5378 H         1 <0>         0.3975
     54 H28        -3.5661   -7.0360   -4.2893 H         1 <0>         0.0903
     55 H29        -2.9161   -7.8364   -2.0342 H         1 <0>         0.0650
     56 H30        -4.6146   -8.2413   -1.6884 H         1 <0>         0.0630
     57 H31        -2.9251   -9.4252   -3.9380 H         1 <0>         0.0654
     58 H32        -3.3524  -10.2470   -2.4181 H         1 <0>         0.0670
     59 H33        -4.8739  -10.9253   -4.2548 H         1 <0>         0.0675
     60 H34        -5.7579  -10.0451   -2.9851 H         1 <0>         0.0637
     61 H35        -4.7094   -8.8399   -5.5861 H         1 <0>         0.0666
     62 H36        -6.4079   -9.2447   -5.2402 H         1 <0>         0.0708
     63 H37        -6.3989   -7.6560   -3.3364 H         1 <0>         0.0688
     64 H38        -5.9716   -6.8341   -4.8564 H         1 <0>         0.0691
     65 H39        -1.7703   -0.9028    0.4628 H         1 <0>         0.4300
@<TRIPOS>BOND
     1    1    2 1
     2    1   28 1
     3    1   29 1
     4    1   30 1
     5    2    3 1
     6    2    4 1
     7    2   12 1
     8    4    5 2
     9    4    6 am
    10    6    7 1
    11    6   31 1
    12    7    8 1
    13    7   32 1
    14    7   33 1
    15    8    9 1
    16    8   34 1
    17    8   35 1
    18    9   10 1
    19    9   11 1
    20    9   36 1
    21   10   37 1
    22   10   38 1
    23   10   39 1
    24   11   40 1
    25   11   41 1
    26   11   42 1
    27   12   17 1
    28   12   13 1
    29   12   65 1
    30   13   14 1
    31   13   43 1
    32   13   44 1
    33   14   15 1
    34   14   45 1
    35   14   46 1
    36   15   16 1
    37   15   18 1
    38   15   47 1
    39   16   17 1
    40   16   48 1
    41   16   49 1
    42   17   50 1
    43   17   51 1
    44   18   19 am
    45   18   52 1
    46   19   20 2
    47   19   21 am
    48   21   22 1
    49   21   53 1
    50   22   27 1
    51   22   23 1
    52   22   54 1
    53   23   24 1
    54   23   55 1
    55   23   56 1
    56   24   25 1
    57   24   57 1
    58   24   58 1
    59   25   26 1
    60   25   59 1
    61   25   60 1
    62   26   27 1
    63   26   61 1
    64   26   62 1
    65   27   63 1
    66   27   64 1
@<TRIPOS>MOLECULE
ZINC39940238
   47    50     0     0     0
SMALL
USER_CHARGES

@<TRIPOS>ATOM
      1 C1         -0.0092    1.5273    0.0072 C.3       1 <0>        -0.1503
      2 C2          0.0178   -0.0024   -0.0063 C.3       1 <0>        -0.0859
      3 H1         -1.0027   -0.3854   -0.0136 H         1 <0>         0.0777
      4 C3          0.7580   -0.4912   -1.2546 C.3       1 <0>        -0.1173
      5 C4          0.5781   -2.0032   -1.4085 C.3       1 <0>        -0.0627
      6 C5          0.9613   -2.6754   -0.0983 C.2       1 <0>        -0.0678
      7 C6          1.0279   -1.9755    1.0573 C.2       1 <0>        -0.1913
      8 S1          1.5036   -3.1657    2.2762 S.3       1 <0>         0.2999
      9 C7          1.6121   -4.5360    1.3115 C.2       1 <0>        -0.0138
     10 C8          1.2821   -4.0832    0.0413 C.2       1 <0>        -0.1904
     11 C9          1.2584   -4.9904   -1.1112 C.2       1 <0>         0.5756
     12 O1          2.2636   -5.1540   -1.7776 O.2       1 <0>        -0.5247
     13 N1          0.1235   -5.6426   -1.4322 N.am      1 <0>        -0.8459
     14 N2          1.9525   -5.8191    1.6940 N.am      1 <0>        -0.5821
     15 C10         2.2465   -6.0825    2.9827 C.2       1 <0>         0.5323
     16 O2          2.2122   -5.1910    3.8085 O.2       1 <0>        -0.4534
     17 C11         2.6098   -7.4523    3.3910 C.2       1 <0>         0.0965
     18 C12         3.0311   -7.7339    4.6759 C.ar      1 <0>        -0.1157
     19 C13         3.1325   -6.6796    5.6839 C.ar      1 <0>         0.0022
     20 C14         3.5509   -7.0062    6.9322 C.ar      1 <0>        -0.1633
     21 C15         3.8849   -8.3229    7.2695 C.ar      1 <0>         0.1041
     22 C16         3.8132   -9.3465    6.3836 C.ar      1 <0>        -0.2316
     23 C17         3.3890   -9.1158    5.0574 C.ar      1 <0>         0.3659
     24 N3          3.3208  -10.1222    4.1964 N.am      1 <0>        -0.5867
     25 C18         2.9318   -9.9786    2.9362 C.2       1 <0>         0.5230
     26 O3          2.8914  -10.9439    2.1985 O.2       1 <0>        -0.4158
     27 C19         2.5313   -8.6151    2.4202 C.3       1 <0>        -0.1705
     28 C20         0.7506   -0.5149    1.2423 C.3       1 <0>        -0.0372
     29 H2          1.0119    1.9087    0.0145 H         1 <0>         0.0589
     30 H3         -0.5260    1.8895   -0.8816 H         1 <0>         0.0617
     31 H4         -0.5328    1.8736    0.8983 H         1 <0>         0.0598
     32 H5          0.3566    0.0125   -2.1339 H         1 <0>         0.0765
     33 H6          1.8191   -0.2607   -1.1597 H         1 <0>         0.0696
     34 H7         -0.4629   -2.2256   -1.6428 H         1 <0>         0.0820
     35 H8          1.2217   -2.3684   -2.2088 H         1 <0>         0.0798
     36 H9         -0.6776   -5.5122   -0.9011 H         1 <0>         0.4049
     37 H10         0.1078   -6.2425   -2.1943 H         1 <0>         0.4081
     38 H11         1.9799   -6.5304    1.0351 H         1 <0>         0.4237
     39 H12         2.8790   -5.6588    5.4388 H         1 <0>         0.2032
     40 H13         3.6284   -6.2331    7.6823 H         1 <0>         0.1702
     41 H14         4.2135   -8.5319    8.2768 H         1 <0>         0.1721
     42 H15         4.0824  -10.3451    6.6947 H         1 <0>         0.1764
     43 H16         1.5056   -8.6788    2.0569 H         1 <0>         0.1812
     44 H17         3.1701   -8.3830    1.5680 H         1 <0>         0.1794
     45 H18         1.6905    0.0236    1.3636 H         1 <0>         0.0899
     46 H19         0.1251   -0.3663    2.1224 H         1 <0>         0.0872
     47 H20         3.5683  -11.0084    4.5036 H         1 <0>         0.4443
@<TRIPOS>BOND
     1    1    2 1
     2    1   29 1
     3    1   30 1
     4    1   31 1
     5    2    3 1
     6    2   28 1
     7    2    4 1
     8    4    5 1
     9    4   32 1
    10    4   33 1
    11    5    6 1
    12    5   34 1
    13    5   35 1
    14    6   10 1
    15    6    7 2
    16    7    8 1
    17    7   28 1
    18    8    9 1
    19    9   10 2
    20    9   14 1
    21   10   11 1
    22   11   12 2
    23   11   13 am
    24   13   36 1
    25   13   37 1
    26   14   15 am
    27   14   38 1
    28   15   16 2
    29   15   17 1
    30   17   27 1
    31   17   18 2
    32   18   23 ar
    33   18   19 ar
    34   19   20 ar
    35   19   39 1
    36   20   21 ar
    37   20   40 1
    38   21   22 ar
    39   21   41 1
    40   22   23 ar
    41   22   42 1
    42   23   24 2
    43   24   25 am
    44   24   47 1
    45   25   26 2
    46   25   27 1
    47   27   43 1
    48   27   44 1
    49   28   45 1
    50   28   46 1
@<TRIPOS>MOLECULE
ZINC66402559
   50    52     0     0     0
SMALL
USER_CHARGES

@<TRIPOS>ATOM
      1 C1          0.1812    1.7358   -0.4943 C.3       1 <0>        -0.1824
      2 C2          0.2834    0.2133   -0.3826 C.3       1 <0>         0.0154
      3 H1          1.0964   -0.1436   -1.0148 H         1 <0>         0.1484
      4 C3         -1.0326   -0.4209   -0.8376 C.3       1 <0>         0.1164
      5 N1         -0.9590   -1.8741   -0.6669 N.am      1 <0>        -0.7633
      6 C4         -2.0460   -2.6359   -0.9003 C.2       1 <0>         0.7128
      7 O1         -3.0878   -2.1171   -1.2526 O.2       1 <0>        -0.5426
      8 N2         -1.9783   -3.9728   -0.7434 N.am      1 <0>        -0.6659
      9 C5         -3.0748   -4.7756   -1.0882 C.2       1 <0>         0.0352
     10 C6         -2.9460   -5.7533   -2.0362 C.2       1 <0>         0.0105
     11 C7         -4.0584   -6.5423   -2.3620 C.2       1 <0>        -0.2888
     12 C8         -5.2419   -6.3329   -1.7416 C.2       1 <0>         0.2167
     13 N3         -5.3722   -5.3614   -0.7994 N.am      1 <0>        -0.5951
     14 H2         -6.2291   -5.2264   -0.3655 H         1 <0>         0.4317
     15 C9         -4.3238   -4.5885   -0.4571 C.2       1 <0>         0.5272
     16 O2         -4.4544   -3.7239    0.3945 O.2       1 <0>        -0.5095
     17 C10        -3.9354   -7.6237   -3.4043 C.3       1 <0>         0.5299
     18 F1         -5.1675   -8.2691   -3.5542 F         1 <0>        -0.1740
     19 F2         -3.5556   -7.0544   -4.6244 F         1 <0>        -0.1709
     20 F3         -2.9689   -8.5516   -3.0017 F         1 <0>        -0.1714
     21 N4          0.5492   -0.1585    1.0135 N.4       1 <0>        -0.3827
     22 C11        -0.4593    0.4594    1.8880 C.3       1 <0>        -0.0119
     23 C12        -0.3568   -0.1757    3.2753 C.3       1 <0>        -0.1042
     24 C13         1.0740   -0.1399    3.7482 C.ar      1 <0>        -0.0894
     25 C14         1.3346   -0.3416    5.0946 C.ar      1 <0>        -0.1045
     26 C15         2.6327   -0.3190    5.5639 C.ar      1 <0>        -0.0913
     27 C16         3.6774   -0.0944    4.6865 C.ar      1 <0>        -0.1052
     28 C17         3.4186    0.1079    3.3459 C.ar      1 <0>        -0.0927
     29 C18         2.1148    0.0872    2.8729 C.ar      1 <0>        -0.1354
     30 C19         1.8779    0.3210    1.4043 C.3       1 <0>         0.0431
     31 H3          1.1087    2.1889   -0.1444 H         1 <0>         0.0895
     32 H4          0.0111    2.0132   -1.5346 H         1 <0>         0.1128
     33 H5         -0.6492    2.0900    0.1166 H         1 <0>         0.0886
     34 H6         -1.8527   -0.0258   -0.2381 H         1 <0>         0.0992
     35 H7         -1.2046   -0.1867   -1.8881 H         1 <0>         0.1154
     36 H8         -0.1279   -2.2879   -0.3860 H         1 <0>         0.3919
     37 H9         -1.1709   -4.3795   -0.3918 H         1 <0>         0.4093
     38 H10        -1.9984   -5.9154   -2.5284 H         1 <0>         0.1508
     39 H11        -6.0940   -6.9448   -1.9980 H         1 <0>         0.1894
     40 H12        -0.2729    1.5309    1.9613 H         1 <0>         0.1378
     41 H13        -1.4544    0.2857    1.4786 H         1 <0>         0.1387
     42 H14        -0.9836    0.3779    3.9745 H         1 <0>         0.1245
     43 H15        -0.6966   -1.2102    3.2263 H         1 <0>         0.1022
     44 H16         0.5183   -0.5170    5.7797 H         1 <0>         0.1351
     45 H17         2.8317   -0.4760    6.6137 H         1 <0>         0.1369
     46 H18         4.6944   -0.0770    5.0496 H         1 <0>         0.1375
     47 H19         4.2355    0.2835    2.6616 H         1 <0>         0.1345
     48 H20         2.6356   -0.2110    0.8289 H         1 <0>         0.1387
     49 H21         1.9512    1.3880    1.1937 H         1 <0>         0.1418
     50 H22         0.5110   -1.1623    1.1087 H         1 <0>         0.4198
@<TRIPOS>BOND
     1    1    2 1
     2    1   31 1
     3    1   32 1
     4    1   33 1
     5    2    3 1
     6    2    4 1
     7    2   21 1
     8    4    5 1
     9    4   34 1
    10    4   35 1
    11    5    6 am
    12    5   36 1
    13    6    7 2
    14    6    8 am
    15    8    9 1
    16    8   37 1
    17    9   15 1
    18    9   10 2
    19   10   11 1
    20   10   38 1
    21   11   12 2
    22   11   17 1
    23   12   13 1
    24   12   39 1
    25   13   14 1
    26   13   15 am
    27   15   16 2
    28   17   18 1
    29   17   19 1
    30   17   20 1
    31   21   30 1
    32   21   22 1
    33   21   50 1
    34   22   23 1
    35   22   40 1
    36   22   41 1
    37   23   24 1
    38   23   42 1
    39   23   43 1
    40   24   29 ar
    41   24   25 ar
    42   25   26 ar
    43   25   44 1
    44   26   27 ar
    45   26   45 1
    46   27   28 ar
    47   27   46 1
    48   28   29 ar
    49   28   47 1
    50   29   30 1
    51   30   48 1
    52   30   49 1
@<TRIPOS>MOLECULE
ZINC02493339
   53    57     0     0     0
SMALL
USER_CHARGES
N-benzyl-4-methyl-3-(methylBLAHyl)-benzenesulfonamide
@<TRIPOS>ATOM
      1 C1         -6.6118   -1.2701    0.0282 C.3       1 <0>        -0.1438
      2 C2         -7.0730    0.1646    0.0383 C.ar      1 <0>         0.0217
      3 C3         -8.4213    0.4574    0.0471 C.ar      1 <0>        -0.1427
      4 C4         -8.8463    1.7739    0.0568 C.ar      1 <0>         0.0034
      5 C5         -7.9237    2.8053    0.0572 C.ar      1 <0>        -0.6896
      6 C6         -6.5728    2.5264    0.0543 C.ar      1 <0>         0.0107
      7 C7         -6.1372    1.2001    0.0391 C.ar      1 <0>        -0.0516
      8 C8         -4.6912    0.8938    0.0302 C.2       1 <0>         0.2610
      9 N1         -4.1467   -0.3062    0.0211 N.2       1 <0>        -0.2521
     10 N2         -2.8639   -0.2085    0.0151 N.2       1 <0>        -0.2531
     11 C9         -2.5142    1.0620    0.0202 C.2       1 <0>         0.1767
     12 N3         -3.6691    1.8038    0.0300 N.pl3     1 <0>        -0.3128
     13 N4         -3.6346    3.1973    0.0377 N.2       1 <0>        -0.2697
     14 C10        -2.5228    3.8704    0.0465 C.2       1 <0>         0.2085
     15 C11        -1.2359    3.1754    0.0310 C.ar      1 <0>        -0.1087
     16 C12        -1.2266    1.7607    0.0174 C.ar      1 <0>         0.0108
     17 C13        -0.0126    1.0758    0.0080 C.ar      1 <0>        -0.0797
     18 C14         1.1684    1.7851    0.0005 C.ar      1 <0>        -0.0852
     19 C15         1.1610    3.1738    0.0076 C.ar      1 <0>        -0.1061
     20 C16        -0.0257    3.8718    0.0227 C.ar      1 <0>        -0.0707
     21 C17        -2.5599    5.3769    0.0544 C.3       1 <0>        -0.1057
     22 S1         -8.4758    4.4785    0.0696 S.o2      1 <0>         2.6949
     23 O1         -7.4235    5.2575   -0.4829 O.2       1 <0>        -0.9499
     24 O2         -9.7888    4.4770   -0.4738 O.2       1 <0>        -0.9528
     25 N5         -8.6202    4.9348    1.6549 N.pl3     1 <0>        -1.1118
     26 C18        -7.4307    5.0096    2.5069 C.3       1 <0>         0.1580
     27 C19        -7.7572    5.7830    3.7585 C.ar      1 <0>        -0.1033
     28 C20        -7.5765    7.1530    3.7912 C.ar      1 <0>        -0.0998
     29 C21        -7.8809    7.8631    4.9376 C.ar      1 <0>        -0.1208
     30 C22        -8.3557    7.2017    6.0547 C.ar      1 <0>        -0.1110
     31 C23        -8.5310    5.8308    6.0238 C.ar      1 <0>        -0.1213
     32 C24        -8.2319    5.1215    4.8756 C.ar      1 <0>        -0.1028
     33 H1         -6.4954   -1.6215    1.0535 H         1 <0>         0.0851
     34 H2         -7.3505   -1.8856   -0.4852 H         1 <0>         0.0730
     35 H3         -5.6559   -1.3408   -0.4908 H         1 <0>         0.1098
     36 H4         -9.1464   -0.3429    0.0468 H         1 <0>         0.1444
     37 H5         -9.9028    1.9977    0.0637 H         1 <0>         0.1470
     38 H6         -5.8538    3.3322    0.0595 H         1 <0>         0.1564
     39 H7          0.0021   -0.0041    0.0020 H         1 <0>         0.1467
     40 H8          2.1096    1.2557   -0.0114 H         1 <0>         0.1411
     41 H9          2.0970    3.7125    0.0009 H         1 <0>         0.1401
     42 H10        -0.0206    4.9518    0.0285 H         1 <0>         0.1466
     43 H11        -2.5784    5.7453   -0.9713 H         1 <0>         0.1041
     44 H12        -3.4537    5.7156    0.5783 H         1 <0>         0.0972
     45 H13        -1.6744    5.7595    0.5619 H         1 <0>         0.0981
     46 H14        -9.4923    5.1524    2.0195 H         1 <0>         0.4219
     47 H15        -7.1119    4.0023    2.7750 H         1 <0>         0.0730
     48 H16        -6.6286    5.5132    1.9675 H         1 <0>         0.0900
     49 H17        -7.2013    7.6692    2.9199 H         1 <0>         0.1268
     50 H18        -7.7442    8.9342    4.9616 H         1 <0>         0.1255
     51 H19        -8.5900    7.7560    6.9515 H         1 <0>         0.1240
     52 H20        -8.9019    5.3141    6.8966 H         1 <0>         0.1246
     53 H21        -8.3689    4.0505    4.8515 H         1 <0>         0.1240
@<TRIPOS>BOND
     1    1    2 1
     2    1   33 1
     3    1   34 1
     4    1   35 1
     5    2    7 ar
     6    2    3 ar
     7    3    4 ar
     8    3   36 1
     9    4    5 ar
    10    4   37 1
    11    5    6 ar
    12    5   22 1
    13    6    7 ar
    14    6   38 1
    15    7    8 1
    16    8   12 1
    17    8    9 2
    18    9   10 1
    19   10   11 2
    20   11   16 1
    21   11   12 1
    22   12   13 1
    23   13   14 2
    24   14   15 1
    25   14   21 1
    26   15   20 ar
    27   15   16 ar
    28   16   17 ar
    29   17   18 ar
    30   17   39 1
    31   18   19 ar
    32   18   40 1
    33   19   20 ar
    34   19   41 1
    35   20   42 1
    36   21   43 1
    37   21   44 1
    38   21   45 1
    39   22   23 2
    40   22   24 2
    41   22   25 1
    42   25   26 1
    43   25   46 1
    44   26   27 1
    45   26   47 1
    46   26   48 1
    47   27   32 ar
    48   27   28 ar
    49   28   29 ar
    50   28   49 1
    51   29   30 ar
    52   29   50 1
    53   30   31 ar
    54   30   51 1
    55   31   32 ar
    56   31   52 1
    57   32   53 1
@<TRIPOS>MOLECULE
ZINC02131001
   60    65     0     0     0
SMALL
USER_CHARGES
bis(2-methoxyphenyl)-methyl-BLAHdione
@<TRIPOS>ATOM
      1 C1          4.1623    0.2914   -1.4370 C.3       1 <0>        -0.1387
      2 C2          3.6279    0.7290   -0.0717 C.3       1 <0>         0.1871
      3 C3          2.1188    0.7121   -0.0257 C.2       1 <0>         0.0568
      4 C4          1.3715    1.8390   -0.0012 C.2       1 <0>        -0.1213
      5 C5         -0.0171    1.4133    0.0098 C.ar      1 <0>        -0.0967
      6 C6         -1.2209    2.1243    0.0302 C.ar      1 <0>        -0.0531
      7 C7         -2.3775    1.3841    0.0371 C.ar      1 <0>        -0.1516
      8 C8         -2.3648   -0.0012    0.0314 C.ar      1 <0>        -0.0921
      9 C9         -1.1879   -0.7294    0.0138 C.ar      1 <0>        -0.1323
     10 C10         0.0021   -0.0041    0.0020 C.ar      1 <0>         0.1096
     11 N1          1.3104   -0.3919   -0.0180 N.pl3     1 <0>        -0.5700
     12 H1          1.6204   -1.3110   -0.0254 H         1 <0>         0.4214
     13 C11         1.8894    3.2542    0.0302 C.3       1 <0>         0.0126
     14 H2          1.7638    3.6621    1.0332 H         1 <0>         0.1028
     15 C12         3.3774    3.2861   -0.3491 C.3       1 <0>         0.1584
     16 N2          4.0177    2.1196    0.2618 N.am      1 <0>        -0.6094
     17 C13         4.9363    2.0399    1.2248 C.2       1 <0>         0.7159
     18 O1          5.6159    2.9760    1.5976 O.2       1 <0>        -0.5197
     19 N3          5.0194    0.7996    1.7327 N.am      1 <0>        -0.5227
     20 C14         4.2272   -0.0664    1.0634 C.2       1 <0>         0.5405
     21 O2          4.0370   -1.2359    1.3204 O.2       1 <0>        -0.4533
     22 C15         5.8292    0.4465    2.8235 C.ar      1 <0>         0.0894
     23 C16         5.3286    0.5234    4.1147 C.ar      1 <0>        -0.0573
     24 C17         6.1258    0.1698    5.1867 C.ar      1 <0>        -0.1469
     25 C18         7.4264   -0.2502    4.9767 C.ar      1 <0>        -0.0608
     26 C19         7.9340   -0.3239    3.6931 C.ar      1 <0>        -0.2021
     27 C20         7.1391    0.0236    2.6125 C.ar      1 <0>         0.1515
     28 O3          7.6367   -0.0488    1.3493 O.3       1 <0>        -0.3122
     29 C21         8.9882   -0.4910    1.2088 C.3       1 <0>         0.0256
     30 C22         1.1068    4.0899   -0.9497 C.ar      1 <0>        -0.1039
     31 C23         1.1220    3.7738   -2.2947 C.ar      1 <0>        -0.0664
     32 C24         0.4004    4.5372   -3.1935 C.ar      1 <0>        -0.1527
     33 C25        -0.3297    5.6249   -2.7506 C.ar      1 <0>        -0.0772
     34 C26        -0.3439    5.9481   -1.4078 C.ar      1 <0>        -0.2067
     35 C27         0.3752    5.1804   -0.5030 C.ar      1 <0>         0.1348
     36 O4          0.3632    5.4967    0.8187 O.3       1 <0>        -0.3138
     37 C28        -0.4118    6.6327    1.2069 C.3       1 <0>         0.0265
     38 H3          3.7898    0.9675   -2.2066 H         1 <0>         0.0881
     39 H4          5.2519    0.3181   -1.4262 H         1 <0>         0.0798
     40 H5          3.8257   -0.7231   -1.6507 H         1 <0>         0.0847
     41 H6         -1.2402    3.2041    0.0352 H         1 <0>         0.1260
     42 H7         -3.3272    1.8982    0.0504 H         1 <0>         0.1174
     43 H8         -3.3058   -0.5312    0.0407 H         1 <0>         0.1219
     44 H9         -1.1915   -1.8093    0.0092 H         1 <0>         0.1293
     45 H10         3.8357    4.1997    0.0296 H         1 <0>         0.1084
     46 H11         3.4845    3.2410   -1.4329 H         1 <0>         0.0900
     47 H12         4.3146    0.8553    4.2819 H         1 <0>         0.1336
     48 H13         5.7335    0.2262    6.1914 H         1 <0>         0.1362
     49 H14         8.0474   -0.5209    5.8178 H         1 <0>         0.1350
     50 H15         8.9501   -0.6526    3.5324 H         1 <0>         0.1388
     51 H16         9.6504    0.1880    1.7460 H         1 <0>         0.0603
     52 H17         9.0865   -1.4956    1.6203 H         1 <0>         0.0593
     53 H18         9.2587   -0.5028    0.1530 H         1 <0>         0.1034
     54 H19         1.6947    2.9272   -2.6435 H         1 <0>         0.1257
     55 H20         0.4103    4.2861   -4.2438 H         1 <0>         0.1239
     56 H21        -0.8889    6.2224   -3.4553 H         1 <0>         0.1245
     57 H22        -0.9145    6.7975   -1.0624 H         1 <0>         0.1287
     58 H23        -0.3351    6.7737    2.2850 H         1 <0>         0.1008
     59 H24        -0.0367    7.5200    0.6968 H         1 <0>         0.0565
     60 H25        -1.4549    6.4711    0.9349 H         1 <0>         0.0560
@<TRIPOS>BOND
     1    1    2 1
     2    1   38 1
     3    1   39 1
     4    1   40 1
     5    2   16 1
     6    2   20 1
     7    2    3 1
     8    3   11 1
     9    3    4 2
    10    4    5 1
    11    4   13 1
    12    5   10 ar
    13    5    6 ar
    14    6    7 ar
    15    6   41 1
    16    7    8 ar
    17    7   42 1
    18    8    9 ar
    19    8   43 1
    20    9   10 ar
    21    9   44 1
    22   10   11 1
    23   11   12 1
    24   13   14 1
    25   13   15 1
    26   13   30 1
    27   15   16 1
    28   15   45 1
    29   15   46 1
    30   16   17 am
    31   17   18 2
    32   17   19 am
    33   19   20 am
    34   19   22 1
    35   20   21 2
    36   22   27 ar
    37   22   23 ar
    38   23   24 ar
    39   23   47 1
    40   24   25 ar
    41   24   48 1
    42   25   26 ar
    43   25   49 1
    44   26   27 ar
    45   26   50 1
    46   27   28 1
    47   28   29 1
    48   29   51 1
    49   29   52 1
    50   29   53 1
    51   30   35 ar
    52   30   31 ar
    53   31   32 ar
    54   31   54 1
    55   32   33 ar
    56   32   55 1
    57   33   34 ar
    58   33   56 1
    59   34   35 ar
    60   34   57 1
    61   35   36 1
    62   36   37 1
    63   37   58 1
    64   37   59 1
    65   37   60 1
@<TRIPOS>MOLECULE
ZINC23881083
   67    71     0     0     0
SMALL
USER_CHARGES
2-[[(1R)-6,7-dimethoxy-1-phenyl-3,4-dihydro-1H-isoquinolin-2-yl]methyl]-2,4-diazaspiro[4.6]undecane-1,3-dione
@<TRIPOS>ATOM
      1 C1         -0.0127    1.0858    0.0080 C.3       1 <0>         0.0229
      2 O1         -0.6816    1.5467    1.1837 O.3       1 <0>        -0.3056
      3 C2         -0.7875    2.8927    1.3463 C.ar      1 <0>         0.1062
      4 C3         -0.2556    3.7512    0.4004 C.ar      1 <0>        -0.1754
      5 C4         -0.3654    5.1246    0.5591 C.ar      1 <0>        -0.0603
      6 C5         -1.0014    5.6413    1.6683 C.ar      1 <0>        -0.0682
      7 C6         -1.5298    4.7844    2.6229 C.ar      1 <0>        -0.1574
      8 C7         -1.4262    3.4135    2.4676 C.ar      1 <0>         0.0985
      9 O2         -1.9467    2.5786    3.4064 O.3       1 <0>        -0.3054
     10 C8         -2.5879    3.1852    4.5302 C.3       1 <0>         0.0231
     11 C9         -1.1501    7.1255    1.8793 C.3       1 <0>         0.1814
     12 H1         -2.1647    7.4389    1.5923 H         1 <0>         0.0648
     13 N1         -0.2084    7.8619    1.0305 N.3       1 <0>        -0.5404
     14 C10        -0.3403    7.4309   -0.3703 C.3       1 <0>         0.0460
     15 C11         0.2300    6.0182   -0.4989 C.3       1 <0>        -0.0707
     16 C12        -0.4091    9.3117    1.1564 C.3       1 <0>         0.2830
     17 N2          0.8286   10.0089    0.7982 N.am      1 <0>        -0.5635
     18 C13         1.1341   10.4149   -0.4488 C.2       1 <0>         0.5284
     19 O3          0.4624   10.2749   -1.4483 O.2       1 <0>        -0.4680
     20 C14         2.4942   11.0844   -0.3452 C.3       1 <0>         0.1270
     21 C15         2.3062   12.5866   -0.6571 C.3       1 <0>        -0.1114
     22 C16         3.4309   13.3579   -0.0248 C.3       1 <0>        -0.1155
     23 C17         4.6054   13.5980   -0.9937 C.3       1 <0>        -0.1219
     24 C18         4.9384   12.3600   -1.8471 C.3       1 <0>        -0.1287
     25 C19         4.8894   11.0854   -1.0482 C.3       1 <0>        -0.1122
     26 C20         3.4896   10.4630   -1.2100 C.3       1 <0>        -0.1185
     27 N3          2.8250   10.9580    1.0882 N.am      1 <0>        -0.7329
     28 C21         1.7915   10.3257    1.6705 C.2       1 <0>         0.7138
     29 O4          1.7392   10.0682    2.8571 O.2       1 <0>        -0.5286
     30 C22        -0.8767    7.4521    3.3249 C.ar      1 <0>        -0.0914
     31 C23         0.4259    7.5450    3.7781 C.ar      1 <0>        -0.0558
     32 C24         0.6766    7.8484    5.1033 C.ar      1 <0>        -0.1100
     33 C25        -0.3753    8.0508    5.9770 C.ar      1 <0>        -0.1156
     34 C26        -1.6779    7.9527    5.5249 C.ar      1 <0>        -0.1256
     35 C27        -1.9287    7.6531    4.1989 C.ar      1 <0>        -0.1207
     36 H2          0.0022   -0.0141    0.0020 H         1 <0>         0.1025
     37 H3          1.0193    1.4665    0.0002 H         1 <0>         0.0555
     38 H4         -0.5447    1.4502   -0.8832 H         1 <0>         0.0556
     39 H5          0.2447    3.3495   -0.4683 H         1 <0>         0.1353
     40 H6         -2.0249    5.1900    3.4929 H         1 <0>         0.1379
     41 H7         -2.9608    2.4019    5.2065 H         1 <0>         0.1023
     42 H8         -3.4303    3.8015    4.1831 H         1 <0>         0.0547
     43 H9         -1.8661    3.8192    5.0660 H         1 <0>         0.0562
     44 H10        -1.4024    7.4345   -0.6566 H         1 <0>         0.0470
     45 H11         0.2170    8.1214   -1.0204 H         1 <0>         0.0888
     46 H12         1.3223    6.0558   -0.3748 H         1 <0>         0.0831
     47 H13        -0.0123    5.6190   -1.4949 H         1 <0>         0.0814
     48 H14        -1.2176    9.6299    0.4818 H         1 <0>         0.0775
     49 H15        -0.6802    9.5556    2.1942 H         1 <0>         0.1144
     50 H16         2.3163   12.7390   -1.7465 H         1 <0>         0.0888
     51 H17         1.3440   12.9284   -0.2480 H         1 <0>         0.0703
     52 H18         3.0614   14.3395    0.3067 H         1 <0>         0.0712
     53 H19         3.8169   12.7999    0.8410 H         1 <0>         0.0643
     54 H20         4.3529   14.4203   -1.6793 H         1 <0>         0.0639
     55 H21         5.5059   13.8624   -0.4199 H         1 <0>         0.0645
     56 H22         4.2121   12.2750   -2.6689 H         1 <0>         0.0654
     57 H23         5.9517   12.4628   -2.2625 H         1 <0>         0.0647
     58 H24         5.6557   10.3896   -1.4205 H         1 <0>         0.0742
     59 H25         5.0813   11.3093    0.0115 H         1 <0>         0.0645
     60 H26         3.5671    9.3924   -0.9695 H         1 <0>         0.0728
     61 H27         3.1876   10.5818   -2.2610 H         1 <0>         0.0910
     62 H28         3.7775   11.3543    1.4699 H         1 <0>         0.4633
     63 H29         1.2477    7.3835    3.0963 H         1 <0>         0.1237
     64 H30         1.6944    7.9247    5.4565 H         1 <0>         0.1181
     65 H31        -0.1794    8.2853    7.0129 H         1 <0>         0.1182
     66 H32        -2.4998    8.1105    6.2076 H         1 <0>         0.1199
     67 H33        -2.9464    7.5765    3.8457 H         1 <0>         0.1178
@<TRIPOS>BOND
     1    1    2 1
     2    1   36 1
     3    1   37 1
     4    1   38 1
     5    2    3 1
     6    3    8 ar
     7    3    4 ar
     8    4    5 ar
     9    4   39 1
    10    5   15 1
    11    5    6 ar
    12    6    7 ar
    13    6   11 1
    14    7    8 ar
    15    7   40 1
    16    8    9 1
    17    9   10 1
    18   10   41 1
    19   10   42 1
    20   10   43 1
    21   11   12 1
    22   11   13 1
    23   11   30 1
    24   13   14 1
    25   13   16 1
    26   14   15 1
    27   14   44 1
    28   14   45 1
    29   15   46 1
    30   15   47 1
    31   16   17 1
    32   16   48 1
    33   16   49 1
    34   17   28 am
    35   17   18 am
    36   18   19 2
    37   18   20 1
    38   20   26 1
    39   20   21 1
    40   20   27 1
    41   21   22 1
    42   21   50 1
    43   21   51 1
    44   22   23 1
    45   22   52 1
    46   22   53 1
    47   23   24 1
    48   23   54 1
    49   23   55 1
    50   24   25 1
    51   24   56 1
    52   24   57 1
    53   25   26 1
    54   25   58 1
    55   25   59 1
    56   26   60 1
    57   26   61 1
    58   27   28 am
    59   27   62 1
    60   28   29 2
    61   30   35 ar
    62   30   31 ar
    63   31   32 ar
    64   31   63 1
    65   32   33 ar
    66   32   64 1
    67   33   34 ar
    68   33   65 1
    69   34   35 ar
    70   34   66 1
    71   35   67 1
@<TRIPOS>MOLECULE
ZINC02416130
   58    63     0     0     0
SMALL
USER_CHARGES

@<TRIPOS>ATOM
      1 C1         -0.0184    1.5028    0.0103 C.3       1 <0>        -0.1116
      2 C2          0.0021   -0.0041    0.0020 C.ar      1 <0>        -0.1188
      3 C3          0.0057   -0.6869   -1.2017 C.ar      1 <0>        -0.0764
      4 C4          0.0237   -2.0694   -1.2250 C.ar      1 <0>        -0.1469
      5 C5          0.0391   -2.7782   -0.0366 C.ar      1 <0>         0.1345
      6 C6          0.0370   -2.0867    1.1814 C.ar      1 <0>        -0.1114
      7 C7          0.0229   -0.6990    1.1965 C.ar      1 <0>        -0.0437
      8 C8          0.0588   -2.8768    2.4387 C.2       1 <0>         0.2474
      9 C9          0.4078   -4.1765    2.3497 C.2       1 <0>        -0.3112
     10 C10         0.7673   -4.7835    1.0252 C.3       1 <0>         0.2244
     11 H1          0.5138   -5.8436    1.0337 H         1 <0>         0.1198
     12 O1          0.0542   -4.1354   -0.0300 O.3       1 <0>        -0.2968
     13 C11         2.2477   -4.6269    0.7906 C.ar      1 <0>        -0.1160
     14 C12         2.7523   -3.4198    0.3440 C.ar      1 <0>        -0.0795
     15 C13         4.1097   -3.2749    0.1289 C.ar      1 <0>        -0.1507
     16 C14         4.9644   -4.3392    0.3608 C.ar      1 <0>         0.1015
     17 C15         4.4578   -5.5477    0.8081 C.ar      1 <0>        -0.1491
     18 C16         3.1007   -5.6887    1.0275 C.ar      1 <0>        -0.0718
     19 F1          6.2915   -4.1988    0.1505 F         1 <0>        -0.1402
     20 C17         0.4244   -4.9974    3.6204 C.3       1 <0>         0.2969
     21 H2         -0.2609   -5.8354    3.4929 H         1 <0>         0.0770
     22 N1          0.0544   -4.2860    4.8499 N.pl3     1 <0>        -0.4564
     23 C18        -0.2737   -2.9472    4.7737 C.2       1 <0>         0.5798
     24 N2         -0.2622   -2.3085    3.6270 N.2       1 <0>        -0.5747
     25 N3         -0.5675   -2.5418    6.0290 N.2       1 <0>        -0.5187
     26 C19        -0.4450   -3.5344    6.8668 C.2       1 <0>         0.3804
     27 N4         -0.0598   -4.6532    6.1925 N.pl3     1 <0>        -0.4814
     28 C20         1.8132   -5.5532    3.8031 C.ar      1 <0>        -0.1165
     29 C21         2.8110   -4.7559    4.3325 C.ar      1 <0>        -0.0796
     30 C22         4.0866   -5.2610    4.5021 C.ar      1 <0>        -0.1675
     31 C23         4.3673   -6.5692    4.1417 C.ar      1 <0>         0.1144
     32 C24         3.3629   -7.3718    3.6093 C.ar      1 <0>         0.1031
     33 C25         2.0852   -6.8607    3.4464 C.ar      1 <0>        -0.1640
     34 O2          3.6335   -8.6563    3.2541 O.3       1 <0>        -0.3021
     35 C26         2.5539   -9.4213    2.7143 C.3       1 <0>         0.0229
     36 O3          5.6217   -7.0675    4.3075 O.3       1 <0>        -0.3032
     37 C27         6.6022   -6.1863    4.8591 C.3       1 <0>         0.0251
     38 H3          1.0042    1.8801    0.0026 H         1 <0>         0.0694
     39 H4         -0.5455    1.8639   -0.8728 H         1 <0>         0.0669
     40 H5         -0.5286    1.8543    0.9071 H         1 <0>         0.0680
     41 H6         -0.0059   -0.1356   -2.1303 H         1 <0>         0.1319
     42 H7          0.0254   -2.5948   -2.1685 H         1 <0>         0.1365
     43 H8          0.0240   -0.1656    2.1356 H         1 <0>         0.1388
     44 H9          2.0854   -2.5898    0.1628 H         1 <0>         0.1364
     45 H10         4.5037   -2.3319   -0.2203 H         1 <0>         0.1346
     46 H11         5.1235   -6.3787    0.9890 H         1 <0>         0.1329
     47 H12         2.7058   -6.6299    1.3806 H         1 <0>         0.1288
     48 H13        -0.6222   -3.4777    7.9307 H         1 <0>         0.2493
     49 H14         0.1026   -5.5318    6.5701 H         1 <0>         0.4505
     50 H15         2.5934   -3.7361    4.6138 H         1 <0>         0.1153
     51 H16         4.8644   -4.6359    4.9152 H         1 <0>         0.1349
     52 H17         1.3030   -7.4827    3.0369 H         1 <0>         0.1372
     53 H18         2.1835   -8.9391    1.8096 H         1 <0>         0.0556
     54 H19         2.9045  -10.4249    2.4736 H         1 <0>         0.1044
     55 H20         1.7501   -9.4834    3.4480 H         1 <0>         0.0548
     56 H21         7.5561   -6.7078    4.9378 H         1 <0>         0.1037
     57 H22         6.7155   -5.3174    4.2109 H         1 <0>         0.0562
     58 H23         6.2827   -5.8617    5.8494 H         1 <0>         0.0547
@<TRIPOS>BOND
     1    1    2 1
     2    1   38 1
     3    1   39 1
     4    1   40 1
     5    2    7 ar
     6    2    3 ar
     7    3    4 ar
     8    3   41 1
     9    4    5 ar
    10    4   42 1
    11    5   12 1
    12    5    6 ar
    13    6    7 ar
    14    6    8 1
    15    7   43 1
    16    8   24 1
    17    8    9 2
    18    9   10 1
    19    9   20 1
    20   10   11 1
    21   10   12 1
    22   10   13 1
    23   13   18 ar
    24   13   14 ar
    25   14   15 ar
    26   14   44 1
    27   15   16 ar
    28   15   45 1
    29   16   17 ar
    30   16   19 1
    31   17   18 ar
    32   17   46 1
    33   18   47 1
    34   20   21 1
    35   20   22 1
    36   20   28 1
    37   22   27 1
    38   22   23 1
    39   23   24 2
    40   23   25 1
    41   25   26 2
    42   26   27 1
    43   26   48 1
    44   27   49 1
    45   28   33 ar
    46   28   29 ar
    47   29   30 ar
    48   29   50 1
    49   30   31 ar
    50   30   51 1
    51   31   32 ar
    52   31   36 1
    53   32   33 ar
    54   32   34 1
    55   33   52 1
    56   34   35 1
    57   35   53 1
    58   35   54 1
    59   35   55 1
    60   36   37 1
    61   37   56 1
    62   37   57 1
    63   37   58 1
@<TRIPOS>MOLECULE
ZINC15641370
   38    40     0     0     0
SMALL
USER_CHARGES

@<TRIPOS>ATOM
      1 C1         -0.0167    1.3782    0.0096 C.ar      1 <0>        -0.0927
      2 C2          1.1706    2.0858    0.0021 C.ar      1 <0>        -0.1103
      3 C3          2.3780    1.4104   -0.0130 C.ar      1 <0>        -0.0231
      4 C4          2.3961    0.0270   -0.0206 C.ar      1 <0>        -0.1083
      5 C5          1.2082   -0.6795   -0.0130 C.ar      1 <0>        -0.0729
      6 C6          0.0021   -0.0041    0.0020 C.ar      1 <0>        -0.1173
      7 C7         -1.2928   -0.7750    0.0107 C.3       1 <0>         0.1724
      8 N1         -1.7261   -1.0173   -1.3676 N.pl3     1 <0>        -0.3837
      9 C8         -2.5195   -0.2041   -2.1116 C.2       1 <0>         0.2995
     10 C9         -2.6798   -0.7918   -3.3292 C.2       1 <0>        -0.2672
     11 C10        -1.9650   -1.9923   -3.3231 C.2       1 <0>         0.0638
     12 N2         -1.3908   -2.1262   -2.1551 N.2       1 <0>        -0.2776
     13 N3         -3.0695    1.0097   -1.7032 N.am      1 <0>        -0.6412
     14 C11        -3.8433    1.7177   -2.5496 C.2       1 <0>         0.5704
     15 O1         -4.0616    1.2975   -3.6694 O.2       1 <0>        -0.4785
     16 C12        -4.4264    3.0045   -2.1166 C.ar      1 <0>        -0.1184
     17 C13        -4.1728    3.4925   -0.8330 C.ar      1 <0>        -0.0356
     18 C14        -4.7198    4.6939   -0.4348 C.ar      1 <0>        -0.0917
     19 C15        -5.5197    5.4161   -1.3049 C.ar      1 <0>        -0.0225
     20 C16        -5.7751    4.9374   -2.5787 C.ar      1 <0>        -0.0335
     21 C17        -5.2283    3.7402   -2.9910 C.ar      1 <0>         0.0147
     22 N4         -6.6314    5.7152   -3.5021 N.pl3     1 <0>         0.0254
     23 O2         -6.8553    5.2984   -4.6146 O.2       1 <0>        -0.1459
     24 O3         -7.1069    6.7675   -3.1438 O.3       1 <0>        -0.1207
     25 Br1        -6.2664    7.0626   -0.7505 Br        1 <0>         0.0383
     26 Cl1         3.8696    2.2984   -0.0231 Cl        1 <0>        -0.0602
     27 H1         -0.9592    1.9053    0.0259 H         1 <0>         0.1214
     28 H2          1.1558    3.1656    0.0076 H         1 <0>         0.1375
     29 H3          3.3383   -0.5007   -0.0327 H         1 <0>         0.1393
     30 H4          1.2222   -1.7594   -0.0193 H         1 <0>         0.1388
     31 H5         -1.1447   -1.7283    0.5180 H         1 <0>         0.1151
     32 H6         -2.0551   -0.1989    0.5352 H         1 <0>         0.0955
     33 H7         -3.2571   -0.3996   -4.1535 H         1 <0>         0.1747
     34 H8         -1.8947   -2.6896   -4.1448 H         1 <0>         0.1901
     35 H9         -2.8954    1.3449   -0.8097 H         1 <0>         0.4069
     36 H10        -3.5499    2.9299   -0.1535 H         1 <0>         0.1510
     37 H11        -4.5245    5.0724    0.5576 H         1 <0>         0.1678
     38 H12        -5.4244    3.3700   -3.9865 H         1 <0>         0.1788
@<TRIPOS>BOND
     1    1    6 ar
     2    1    2 ar
     3    1   27 1
     4    2    3 ar
     5    2   28 1
     6    3    4 ar
     7    3   26 1
     8    4    5 ar
     9    4   29 1
    10    5    6 ar
    11    5   30 1
    12    6    7 1
    13    7    8 1
    14    7   31 1
    15    7   32 1
    16    8   12 1
    17    8    9 1
    18    9   10 2
    19    9   13 1
    20   10   11 1
    21   10   33 1
    22   11   12 2
    23   11   34 1
    24   13   14 am
    25   13   35 1
    26   14   15 2
    27   14   16 1
    28   16   21 ar
    29   16   17 ar
    30   17   18 ar
    31   17   36 1
    32   18   19 ar
    33   18   37 1
    34   19   20 ar
    35   19   25 1
    36   20   21 ar
    37   20   22 1
    38   21   38 1
    39   22   23 2
    40   22   24 1
@<TRIPOS>MOLECULE
ZINC04098236
   71    75     0     0     0
SMALL
USER_CHARGES
1-[(ethyl-dimethoxy-BLAHyl)methyl]-7-methoxy-3,4-dihydroisoquinolin-6-ol
@<TRIPOS>ATOM
      1 C1          4.0540   -1.7954    6.3573 C.3       1 <0>        -0.1633
      2 C2          3.1119   -1.3217    5.2487 C.3       1 <0>        -0.1209
      3 C3          3.1105   -2.3432    4.1096 C.3       1 <0>        -0.1100
      4 H1          4.1327   -2.5103    3.7699 H         1 <0>         0.0957
      5 C4          2.5153   -3.6628    4.6078 C.3       1 <0>         0.0015
      6 C5          2.0551   -5.9575    3.9661 C.3       1 <0>         0.0019
      7 C6          2.4071   -6.9866    2.8914 C.3       1 <0>        -0.1025
      8 C7          1.9129   -6.5195    1.5461 C.ar      1 <0>        -0.0853
      9 C8          1.8141   -7.4488    0.5209 C.ar      1 <0>        -0.1677
     10 C9          1.3695   -7.0649   -0.7315 C.ar      1 <0>         0.1297
     11 C10         1.0202   -5.7372   -0.9617 C.ar      1 <0>         0.1162
     12 C11         1.1192   -4.8148    0.0641 C.ar      1 <0>        -0.1516
     13 C12         1.5641   -5.2047    1.3194 C.ar      1 <0>        -0.1215
     14 C13         1.6452   -4.1655    2.4051 C.3       1 <0>         0.0953
     15 H2          0.6433   -3.9642    2.7843 H         1 <0>         0.1422
     16 C14         2.2159   -2.8643    1.8367 C.3       1 <0>        -0.1393
     17 C15         2.2668   -1.8116    2.9481 C.3       1 <0>        -0.0816
     18 H3          1.2561   -1.6023    3.2984 H         1 <0>         0.1010
     19 C16         2.8959   -0.5265    2.4060 C.3       1 <0>        -0.0634
     20 C17         2.0013    0.0623    1.3459 C.2       1 <0>         0.2178
     21 N1          0.8944   -0.5255    1.0318 N.2       1 <0>        -0.5163
     22 C18         0.0021   -0.0041    0.0020 C.3       1 <0>         0.0400
     23 C19        -0.0186    1.5237    0.0104 C.3       1 <0>        -0.1067
     24 C20         1.3951    2.0442   -0.0003 C.ar      1 <0>        -0.0811
     25 C21         2.3856    1.3113    0.6639 C.ar      1 <0>        -0.0934
     26 C22         3.7031    1.7657    0.6720 C.ar      1 <0>        -0.1588
     27 C23         4.0229    2.9432    0.0205 C.ar      1 <0>         0.0992
     28 C24         3.0320    3.6682   -0.6391 C.ar      1 <0>         0.1043
     29 C25         1.7190    3.2142   -0.6459 C.ar      1 <0>        -0.1045
     30 O1          3.3514    4.8239   -1.2776 O.3       1 <0>        -0.4826
     31 O2          5.3061    3.3938    0.0231 O.3       1 <0>        -0.3027
     32 C26         6.2707    2.6009    0.7180 C.3       1 <0>         0.0234
     33 O3          0.5840   -5.3488   -2.1898 O.3       1 <0>        -0.2964
     34 C27         0.2436   -3.9704   -2.3513 C.3       1 <0>         0.0228
     35 O4          1.2737   -7.9801   -1.7328 O.3       1 <0>        -0.2970
     36 C28         1.6492   -9.3234   -1.4220 C.3       1 <0>         0.0215
     37 H4          3.7149   -2.7601    6.7348 H         1 <0>         0.0537
     38 H5          5.0633   -1.8958    5.9582 H         1 <0>         0.0606
     39 H6          4.0550   -1.0677    7.1689 H         1 <0>         0.0678
     40 H7          3.4510   -0.3570    4.8713 H         1 <0>         0.0854
     41 H8          2.1026   -1.2213    5.6479 H         1 <0>         0.0757
     42 H9          3.1258   -4.0527    5.4223 H         1 <0>         0.1327
     43 H10         1.4992   -3.4922    4.9637 H         1 <0>         0.1320
     44 H11         2.5664   -6.2091    4.8952 H         1 <0>         0.1353
     45 H12         0.9773   -5.9517    4.1283 H         1 <0>         0.1329
     46 H13         3.4888   -7.1152    2.8544 H         1 <0>         0.1017
     47 H14         1.9397   -7.9402    3.1371 H         1 <0>         0.1209
     48 H15         2.0856   -8.4783    0.7017 H         1 <0>         0.1458
     49 H16         0.8487   -3.7843   -0.1131 H         1 <0>         0.1472
     50 H17         1.5778   -2.5094    1.0274 H         1 <0>         0.1326
     51 H18         3.2221   -3.0428    1.4574 H         1 <0>         0.0822
     52 H19         3.7901   -0.7346    2.0096 H         1 <0>         0.0837
     53 H20         3.0165    0.1898    3.2186 H         1 <0>         0.1016
     54 H21        -1.0066   -0.3760    0.1816 H         1 <0>         0.0991
     55 H22         0.3423   -0.3514   -0.9736 H         1 <0>         0.0793
     56 H23        -0.5456    1.8849   -0.8727 H         1 <0>         0.0919
     57 H24        -0.5286    1.8753    0.9073 H         1 <0>         0.0849
     58 H25         4.4693    1.2023    1.1839 H         1 <0>         0.1386
     59 H26         0.9539    3.7793   -1.1574 H         1 <0>         0.1440
     60 H27         3.6049    4.7048   -2.2031 H         1 <0>         0.3946
     61 H28         7.2507    3.0721    0.6423 H         1 <0>         0.1067
     62 H29         5.9866    2.5199    1.7672 H         1 <0>         0.0570
     63 H30         6.3107    1.6060    0.2745 H         1 <0>         0.0553
     64 H31        -0.0882   -3.7956   -3.3748 H         1 <0>         0.1092
     65 H32        -0.5582   -3.7107   -1.6601 H         1 <0>         0.0593
     66 H33         1.1176   -3.3534   -2.1423 H         1 <0>         0.0561
     67 H34         1.0165   -9.7009   -0.6186 H         1 <0>         0.0600
     68 H35         1.5258   -9.9490   -2.3060 H         1 <0>         0.1103
     69 H36         2.6916   -9.3450   -1.1042 H         1 <0>         0.0596
     70 N2          2.5190   -4.6366    3.4927 N.4       1 <0>        -0.3893
     71 H37         3.4771   -4.7281    3.1351 H         1 <0>         0.4256
@<TRIPOS>BOND
     1    1    2 1
     2    1   37 1
     3    1   38 1
     4    1   39 1
     5    2    3 1
     6    2   40 1
     7    2   41 1
     8    3    4 1
     9    3   17 1
    10    3    5 1
    11    5   42 1
    12    5   43 1
    13    5   70 1
    14    6    7 1
    15    6   44 1
    16    6   45 1
    17    6   70 1
    18    7    8 1
    19    7   46 1
    20    7   47 1
    21    8   13 ar
    22    8    9 ar
    23    9   10 ar
    24    9   48 1
    25   10   11 ar
    26   10   35 1
    27   11   12 ar
    28   11   33 1
    29   12   13 ar
    30   12   49 1
    31   13   14 1
    32   14   15 1
    33   14   16 1
    34   14   70 1
    35   16   17 1
    36   16   50 1
    37   16   51 1
    38   17   18 1
    39   17   19 1
    40   19   20 1
    41   19   52 1
    42   19   53 1
    43   20   25 1
    44   20   21 2
    45   21   22 1
    46   22   23 1
    47   22   54 1
    48   22   55 1
    49   23   24 1
    50   23   56 1
    51   23   57 1
    52   24   29 ar
    53   24   25 ar
    54   25   26 ar
    55   26   27 ar
    56   26   58 1
    57   27   28 ar
    58   27   31 1
    59   28   29 ar
    60   28   30 1
    61   29   59 1
    62   30   60 1
    63   31   32 1
    64   32   61 1
    65   32   62 1
    66   32   63 1
    67   33   34 1
    68   34   64 1
    69   34   65 1
    70   34   66 1
    71   35   36 1
    72   36   67 1
    73   36   68 1
    74   36   69 1
    75   70   71 1
@<TRIPOS>MOLECULE
ZINC15007074
   70    74     0     0     0
SMALL
USER_CHARGES
N-(2-furylmethyl)-N-[[2-[(3S)-3-hydroxy-1-piperidyl]-7-methyl-3-quinolyl]methyl]cyclohexanecarboxamide
@<TRIPOS>ATOM
      1 C1         -4.5072   -8.2269    3.4436 C.3       1 <0>        -0.1388
      2 C2         -3.6755   -7.3408    2.5525 C.ar      1 <0>         0.0132
      3 C3         -2.3172   -7.1831    2.8177 C.ar      1 <0>        -0.1008
      4 C4         -1.5394   -6.3893    2.0301 C.ar      1 <0>        -0.0526
      5 C5         -2.1124   -5.7211    0.9371 C.ar      1 <0>        -0.0861
      6 C6         -1.3380   -4.8955    0.0962 C.ar      1 <0>         0.0619
      7 C7         -1.9572   -4.2723   -0.9448 C.ar      1 <0>        -0.1278
      8 C8         -3.3288   -4.4699   -1.1614 C.ar      1 <0>         0.4286
      9 C9         -3.4930   -5.8800    0.6656 C.ar      1 <0>         0.1588
     10 C10        -4.2632   -6.7073    1.5005 C.ar      1 <0>        -0.1602
     11 N1         -3.9446   -3.8326   -2.2281 N.pl3     1 <0>        -0.5069
     12 C11        -5.0390   -2.9700   -1.7651 C.3       1 <0>         0.0416
     13 C12        -5.5984   -2.1747   -2.9470 C.3       1 <0>        -0.1142
     14 C13        -6.1068   -3.1468   -4.0151 C.3       1 <0>        -0.1637
     15 C14        -4.9599   -4.0656   -4.4452 C.3       1 <0>         0.1123
     16 H1         -4.1634   -3.4700   -4.8914 H         1 <0>         0.0780
     17 C15        -4.4190   -4.8061   -3.2200 C.3       1 <0>         0.0548
     18 O1         -5.4402   -5.0127   -5.4014 O.3       1 <0>        -0.5645
     19 C16        -1.1688   -3.3772   -1.8657 C.3       1 <0>         0.1570
     20 N2          0.1966   -3.2322   -1.3549 N.am      1 <0>        -0.6205
     21 C17         1.2409   -4.1675   -1.7801 C.3       1 <0>         0.1930
     22 C18         1.8644   -3.6758   -3.0610 C.2       1 <0>        -0.0585
     23 C19         2.9275   -2.8569   -3.1547 C.2       1 <0>        -0.1681
     24 C20         3.1699   -2.6565   -4.5331 C.2       1 <0>        -0.2156
     25 C21         2.2405   -3.3649   -5.1992 C.2       1 <0>        -0.0265
     26 O2          1.4525   -3.9802   -4.3025 O.3       1 <0>        -0.1778
     27 C22         0.4920   -2.2384   -0.4938 C.2       1 <0>         0.5182
     28 O3          1.6357   -2.0761   -0.1242 O.2       1 <0>        -0.5021
     29 C23        -0.5989   -1.3288    0.0100 C.3       1 <0>        -0.1026
     30 C24        -0.9422   -0.2987   -1.0679 C.3       1 <0>        -0.1144
     31 C25        -2.0498    0.6248   -0.5565 C.3       1 <0>        -0.1143
     32 C26        -1.5702    1.3465    0.7045 C.3       1 <0>        -0.1264
     33 C27        -1.2269    0.3164    1.7824 C.3       1 <0>        -0.1186
     34 C28        -0.1194   -0.6071    1.2709 C.3       1 <0>        -0.1037
     35 H2         -4.9189   -7.6358    4.2616 H         1 <0>         0.0956
     36 H3         -5.3214   -8.6629    2.8646 H         1 <0>         0.0831
     37 H4         -3.8828   -9.0231    3.8491 H         1 <0>         0.0886
     38 H5         -1.8752   -7.6965    3.6587 H         1 <0>         0.1558
     39 H6         -0.4874   -6.2744    2.2459 H         1 <0>         0.1627
     40 H7         -0.2818   -4.7580    0.2749 H         1 <0>         0.1776
     41 H8         -5.3177   -6.8401    1.3084 H         1 <0>         0.1528
     42 H9         -5.8293   -3.5852   -1.3349 H         1 <0>         0.0514
     43 H10        -4.6632   -2.2808   -1.0089 H         1 <0>         0.1007
     44 H11        -4.8122   -1.5488   -3.3691 H         1 <0>         0.0884
     45 H12        -6.4208   -1.5456   -2.6064 H         1 <0>         0.0924
     46 H13        -6.4664   -2.5852   -4.8773 H         1 <0>         0.0852
     47 H14        -6.9199   -3.7464   -3.6060 H         1 <0>         0.0742
     48 H15        -3.5928   -5.4505   -3.5204 H         1 <0>         0.1041
     49 H16        -5.2121   -5.4127   -2.7829 H         1 <0>         0.0588
     50 H17        -5.7984   -4.6126   -6.2056 H         1 <0>         0.3963
     51 H18        -1.6442   -2.3976   -1.9151 H         1 <0>         0.1238
     52 H19        -1.1390   -3.8172   -2.8625 H         1 <0>         0.1184
     53 H20         0.8024   -5.1518   -1.9440 H         1 <0>         0.0944
     54 H21         2.0056   -4.2347   -1.0062 H         1 <0>         0.1227
     55 H22         3.4858   -2.4306   -2.3343 H         1 <0>         0.1510
     56 H23         3.9513   -2.0508   -4.9677 H         1 <0>         0.1513
     57 H24         2.1446   -3.4285   -6.2731 H         1 <0>         0.2059
     58 H25        -1.4849   -1.9190    0.2439 H         1 <0>         0.0836
     59 H26        -0.0562    0.2915   -1.3018 H         1 <0>         0.0770
     60 H27        -1.2839   -0.8129   -1.9662 H         1 <0>         0.0690
     61 H28        -2.9358    0.0346   -0.3226 H         1 <0>         0.0590
     62 H29        -2.2944    1.3587   -1.3244 H         1 <0>         0.0713
     63 H30        -2.3592    2.0044    1.0688 H         1 <0>         0.0670
     64 H31        -0.6842    1.9367    0.4706 H         1 <0>         0.0680
     65 H32        -2.1129   -0.2738    2.0163 H         1 <0>         0.0579
     66 H33        -0.8852    0.8306    2.6807 H         1 <0>         0.0711
     67 H34         0.1253   -1.3410    2.0388 H         1 <0>         0.0664
     68 H35         0.7667   -0.0169    1.0370 H         1 <0>         0.0797
     69 N3         -4.1206   -5.2551   -0.3896 N.ar      1 <0>        -0.5213
     70 H36        -5.1224   -5.3759   -0.5793 H         1 <0>         0.4635
@<TRIPOS>BOND
     1    1    2 1
     2    1   35 1
     3    1   36 1
     4    1   37 1
     5    2   10 ar
     6    2    3 ar
     7    3    4 ar
     8    3   38 1
     9    4    5 ar
    10    4   39 1
    11    5    9 ar
    12    5    6 ar
    13    6    7 ar
    14    6   40 1
    15    7    8 ar
    16    7   19 1
    17    8   11 1
    18    8   69 ar
    19    9   10 ar
    20    9   69 ar
    21   10   41 1
    22   11   17 1
    23   11   12 1
    24   12   13 1
    25   12   42 1
    26   12   43 1
    27   13   14 1
    28   13   44 1
    29   13   45 1
    30   14   15 1
    31   14   46 1
    32   14   47 1
    33   15   16 1
    34   15   17 1
    35   15   18 1
    36   17   48 1
    37   17   49 1
    38   18   50 1
    39   19   20 1
    40   19   51 1
    41   19   52 1
    42   20   21 1
    43   20   27 am
    44   21   22 1
    45   21   53 1
    46   21   54 1
    47   22   26 1
    48   22   23 2
    49   23   24 1
    50   23   55 1
    51   24   25 2
    52   24   56 1
    53   25   26 1
    54   25   57 1
    55   27   28 2
    56   27   29 1
    57   29   34 1
    58   29   30 1
    59   29   58 1
    60   30   31 1
    61   30   59 1
    62   30   60 1
    63   31   32 1
    64   31   61 1
    65   31   62 1
    66   32   33 1
    67   32   63 1
    68   32   64 1
    69   33   34 1
    70   33   65 1
    71   33   66 1
    72   34   67 1
    73   34   68 1
    74   69   70 1
@<TRIPOS>MOLECULE
ZINC39226180
   63    66     0     0     0
SMALL
USER_CHARGES

@<TRIPOS>ATOM
      1 C1         -0.0187    1.5258    0.0104 C.3       1 <0>        -0.1853
      2 C2          0.0021   -0.0041    0.0020 C.3       1 <0>         0.0240
      3 C3         -1.4333   -0.5336    0.0129 C.3       1 <0>        -0.1845
      4 N1          0.6897   -0.4778   -1.2066 N.4       1 <0>        -0.3817
      5 C4          2.0635    0.0387   -1.2203 C.3       1 <0>        -0.0062
      6 C5          2.7582   -0.3836   -2.5168 C.3       1 <0>        -0.1775
      7 C6          2.7826   -1.9116   -2.6012 C.3       1 <0>         0.1185
      8 C7          1.3516   -2.4456   -2.5088 C.3       1 <0>        -0.1286
      9 C8          0.7088   -1.9454   -1.2132 C.3       1 <0>        -0.0112
     10 C9          3.3982   -2.3359   -3.9415 C.3       1 <0>        -0.1923
     11 C10         4.8204   -1.8045   -3.9695 C.2       1 <0>         0.3955
     12 O1          5.3071   -1.3372   -4.9775 O.2       1 <0>        -0.4229
     13 C11         5.5789   -1.8865   -2.7082 C.ar      1 <0>        -0.2406
     14 C12         6.9533   -1.6552   -2.6902 C.ar      1 <0>        -0.0136
     15 C13         7.6450   -1.7313   -1.4862 C.ar      1 <0>        -0.0769
     16 C14         6.9601   -2.0376   -0.3069 C.ar      1 <0>        -0.0380
     17 C15         5.6024   -2.2688   -0.3253 C.ar      1 <0>        -0.1508
     18 C16         4.8962   -2.1997   -1.5204 C.ar      1 <0>         0.1665
     19 O2          3.5640   -2.4392   -1.5308 O.3       1 <0>        -0.2996
     20 C17         9.1068   -1.4876   -1.4535 C.ar      1 <0>        -0.0235
     21 C18         9.7882   -1.1759   -2.6306 C.ar      1 <0>        -0.1146
     22 C19        11.1455   -0.9498   -2.6014 C.ar      1 <0>        -0.0469
     23 C20        11.8412   -1.0320   -1.3923 C.ar      1 <0>        -0.1164
     24 C21        11.1578   -1.3438   -0.2141 C.ar      1 <0>        -0.0821
     25 C22         9.7995   -1.5643   -0.2447 C.ar      1 <0>        -0.1151
     26 C23        13.2977   -0.7901   -1.3599 C.2       1 <0>         0.5684
     27 O3         13.8919   -0.5193   -2.3854 O.2       1 <0>        -0.5089
     28 N2         13.9681   -0.8695   -0.1934 N.am      1 <0>        -0.5963
     29 O4         15.3647   -0.6376   -0.1623 O.3       1 <0>        -0.1325
     30 C24        15.9445   -0.7547    1.1385 C.3       1 <0>         0.0596
     31 C25        17.4255   -0.4892    1.0541 C.2       1 <0>        -0.1588
     32 C26        18.0032    0.2870    1.9372 C.2       1 <0>        -0.1597
     33 H1          1.0039    1.9031    0.0027 H         1 <0>         0.0815
     34 H2         -0.5459    1.8868   -0.8726 H         1 <0>         0.0818
     35 H3         -0.5289    1.8773    0.9072 H         1 <0>         0.1069
     36 H4          0.5293   -0.3651    0.8851 H         1 <0>         0.1371
     37 H5         -1.9605   -0.1726   -0.8702 H         1 <0>         0.0817
     38 H6         -1.4185   -1.6235    0.0069 H         1 <0>         0.0826
     39 H7         -1.9435   -0.1821    0.9097 H         1 <0>         0.1066
     40 H8          2.0428    1.1267   -1.1573 H         1 <0>         0.1388
     41 H9          2.6109   -0.3633   -0.3677 H         1 <0>         0.1342
     42 H10         2.2126    0.0194   -3.3701 H         1 <0>         0.1110
     43 H11         3.7793   -0.0022   -2.5237 H         1 <0>         0.1170
     44 H12         0.7746   -2.0898   -3.3624 H         1 <0>         0.1140
     45 H13         1.3691   -3.5354   -2.5093 H         1 <0>         0.1290
     46 H14         1.2846   -2.3047   -0.3603 H         1 <0>         0.1377
     47 H15        -0.3119   -2.3219   -1.1458 H         1 <0>         0.1401
     48 H16         3.4064   -3.4231   -4.0188 H         1 <0>         0.1261
     49 H17         2.8258   -1.9085   -4.7648 H         1 <0>         0.1189
     50 H18         7.4772   -1.4189   -3.6046 H         1 <0>         0.1460
     51 H19         7.5001   -2.0937    0.6267 H         1 <0>         0.1449
     52 H20         5.0846   -2.5052    0.5925 H         1 <0>         0.1433
     53 H21         9.2503   -1.1124   -3.5650 H         1 <0>         0.1360
     54 H22        11.6728   -0.7093   -3.5127 H         1 <0>         0.1461
     55 H23        11.6945   -1.4076    0.7210 H         1 <0>         0.1306
     56 H24         9.2704   -1.8010    0.6666 H         1 <0>         0.1351
     57 H25        13.4940   -1.0856    0.6248 H         1 <0>         0.4059
     58 H26        15.4829   -0.0294    1.8086 H         1 <0>         0.0683
     59 H27        15.7770   -1.7613    1.5217 H         1 <0>         0.0734
     60 H28        18.0106   -0.9389    0.2656 H         1 <0>         0.1237
     61 H29        17.4180    0.7367    2.7258 H         1 <0>         0.1008
     62 H30        19.0646    0.4772    1.8768 H         1 <0>         0.1127
     63 H31         0.1994   -0.1452   -2.0234 H         1 <0>         0.4200
@<TRIPOS>BOND
     1    1    2 1
     2    1   33 1
     3    1   34 1
     4    1   35 1
     5    2    3 1
     6    2    4 1
     7    2   36 1
     8    3   37 1
     9    3   38 1
    10    3   39 1
    11    4    9 1
    12    4    5 1
    13    4   63 1
    14    5    6 1
    15    5   40 1
    16    5   41 1
    17    6    7 1
    18    6   42 1
    19    6   43 1
    20    7   19 1
    21    7    8 1
    22    7   10 1
    23    8    9 1
    24    8   44 1
    25    8   45 1
    26    9   46 1
    27    9   47 1
    28   10   11 1
    29   10   48 1
    30   10   49 1
    31   11   12 2
    32   11   13 1
    33   13   18 ar
    34   13   14 ar
    35   14   15 ar
    36   14   50 1
    37   15   16 ar
    38   15   20 1
    39   16   17 ar
    40   16   51 1
    41   17   18 ar
    42   17   52 1
    43   18   19 1
    44   20   25 ar
    45   20   21 ar
    46   21   22 ar
    47   21   53 1
    48   22   23 ar
    49   22   54 1
    50   23   24 ar
    51   23   26 1
    52   24   25 ar
    53   24   55 1
    54   25   56 1
    55   26   27 2
    56   26   28 am
    57   28   29 1
    58   28   57 1
    59   29   30 1
    60   30   31 1
    61   30   58 1
    62   30   59 1
    63   31   32 2
    64   31   60 1
    65   32   61 1
    66   32   62 1
@<TRIPOS>MOLECULE
ZINC42888485
   66    71     0     0     0
SMALL
USER_CHARGES

@<TRIPOS>ATOM
      1 C1         -0.0167    1.3781    0.0096 C.ar      1 <0>        -0.0948
      2 C2          1.1709    2.0855    0.0021 C.ar      1 <0>        -0.1151
      3 C3          2.3773    1.4107   -0.0130 C.ar      1 <0>        -0.1009
      4 C4          2.3960    0.0285   -0.0201 C.ar      1 <0>        -0.1154
      5 C5          1.2084   -0.6789   -0.0117 C.ar      1 <0>        -0.0841
      6 C6          0.0021   -0.0041    0.0020 C.ar      1 <0>        -0.1170
      7 C7          3.7112   -0.7071   -0.0376 C.3       1 <0>         0.1333
      8 C8          4.0858   -1.0225   -1.4682 C.3       1 <0>        -0.0395
      9 N1          5.4135   -1.6081   -1.6195 N.4       1 <0>        -0.3688
     10 C9          5.4580   -2.9702   -1.0774 C.3       1 <0>         0.0422
     11 C10         5.7257   -2.8936    0.4134 C.ar      1 <0>        -0.1801
     12 C11         6.9304   -3.3333    0.9232 C.ar      1 <0>        -0.0578
     13 C12         7.1595   -3.2739    2.2867 C.ar      1 <0>        -0.1190
     14 C13         6.1851   -2.7779    3.1333 C.ar      1 <0>        -0.0705
     15 C14         4.9807   -2.3330    2.6219 C.ar      1 <0>        -0.1212
     16 C15         4.7549   -2.3849    1.2536 C.ar      1 <0>         0.1030
     17 O1          3.5896   -1.9087    0.7340 O.3       1 <0>        -0.3039
     18 C16         5.7632   -1.6461   -3.0458 C.3       1 <0>        -0.0357
     19 C17         7.1800   -2.1350   -3.2028 C.2       1 <0>         0.5024
     20 O2          7.8340   -2.4235   -2.2231 O.2       1 <0>        -0.5228
     21 N2          7.7202   -2.2518   -4.4321 N.am      1 <0>        -0.5877
     22 C18         6.9425   -1.9004   -5.6280 C.3       1 <0>         0.0966
     23 C19         6.9609   -3.0885   -6.5949 C.3       1 <0>        -0.1297
     24 C20         8.4109   -3.4849   -6.8821 C.3       1 <0>        -0.0092
     25 C21         9.0925   -3.9112   -5.5799 C.3       1 <0>        -0.1365
     26 C22         9.1001   -2.7271   -4.6012 C.3       1 <0>         0.1118
     27 C23         8.4337   -4.6317   -7.8595 C.2       1 <0>         0.2818
     28 N3          8.5718   -4.5107   -9.1473 N.2       1 <0>        -0.4739
     29 C24         8.5497   -5.7393   -9.7263 C.ar      1 <0>         0.0353
     30 C25         8.6537   -6.1833  -11.0472 C.ar      1 <0>        -0.0286
     31 C26         8.5936   -7.5195  -11.3235 C.ar      1 <0>        -0.1552
     32 C27         8.4294   -8.4474  -10.3020 C.ar      1 <0>         0.1286
     33 C28         8.3241   -8.0307   -8.9901 C.ar      1 <0>        -0.1542
     34 C29         8.3837   -6.6760   -8.6924 C.ar      1 <0>         0.0760
     35 N4          8.3186   -5.9454   -7.5229 N.pl3     1 <0>        -0.5947
     36 F1          8.3722   -9.7651  -10.5946 F         1 <0>        -0.1290
     37 H1         -0.9591    1.9053    0.0259 H         1 <0>         0.1319
     38 H2          1.1563    3.1654    0.0076 H         1 <0>         0.1328
     39 H3          3.3051    1.9634   -0.0196 H         1 <0>         0.1262
     40 H4          1.2231   -1.7588   -0.0176 H         1 <0>         0.1303
     41 H5         -0.9258   -0.5567    0.0082 H         1 <0>         0.1318
     42 H6          4.4817   -0.0745    0.4030 H         1 <0>         0.0951
     43 H7          3.3513   -1.7182   -1.8741 H         1 <0>         0.1419
     44 H8          4.0445   -0.1011   -2.0491 H         1 <0>         0.1461
     45 H9          4.5023   -3.4644   -1.2521 H         1 <0>         0.1361
     46 H10         6.2561   -3.5311   -1.5636 H         1 <0>         0.1484
     47 H11         7.6903   -3.7221    0.2616 H         1 <0>         0.1428
     48 H12         8.1013   -3.6152    2.6903 H         1 <0>         0.1405
     49 H13         6.3657   -2.7383    4.1973 H         1 <0>         0.1424
     50 H14         4.2193   -1.9471    3.2835 H         1 <0>         0.1435
     51 H15         5.0857   -2.3215   -3.5681 H         1 <0>         0.1615
     52 H16         5.6754   -0.6451   -3.4682 H         1 <0>         0.1630
     53 H17         5.9144   -1.6772   -5.3428 H         1 <0>         0.0900
     54 H18         7.3872   -1.0299   -6.1103 H         1 <0>         0.0966
     55 H19         6.4355   -3.9313   -6.1456 H         1 <0>         0.0731
     56 H20         6.4693   -2.8073   -7.5262 H         1 <0>         0.0989
     57 H21         8.9423   -2.6341   -7.3084 H         1 <0>         0.1174
     58 H22         8.5470   -4.7462   -5.1402 H         1 <0>         0.0712
     59 H23        10.1181   -4.2156   -5.7888 H         1 <0>         0.0950
     60 H24         9.7172   -1.9227   -5.0015 H         1 <0>         0.0903
     61 H25         9.4961   -3.0496   -3.6383 H         1 <0>         0.1073
     62 H26         8.7811   -5.4706  -11.8487 H         1 <0>         0.1446
     63 H27         8.6740   -7.8584  -12.3459 H         1 <0>         0.1481
     64 H28         8.1963   -8.7550   -8.1992 H         1 <0>         0.1375
     65 H29         8.2094   -6.3021   -6.6275 H         1 <0>         0.4217
     66 H30         6.0851   -1.0355   -1.1305 H         1 <0>         0.4282
@<TRIPOS>BOND
     1    1    6 ar
     2    1    2 ar
     3    1   37 1
     4    2    3 ar
     5    2   38 1
     6    3    4 ar
     7    3   39 1
     8    4    5 ar
     9    4    7 1
    10    5    6 ar
    11    5   40 1
    12    6   41 1
    13    7   17 1
    14    7    8 1
    15    7   42 1
    16    8    9 1
    17    8   43 1
    18    8   44 1
    19    9   10 1
    20    9   18 1
    21    9   66 1
    22   10   11 1
    23   10   45 1
    24   10   46 1
    25   11   16 ar
    26   11   12 ar
    27   12   13 ar
    28   12   47 1
    29   13   14 ar
    30   13   48 1
    31   14   15 ar
    32   14   49 1
    33   15   16 ar
    34   15   50 1
    35   16   17 1
    36   18   19 1
    37   18   51 1
    38   18   52 1
    39   19   20 2
    40   19   21 am
    41   21   26 1
    42   21   22 1
    43   22   23 1
    44   22   53 1
    45   22   54 1
    46   23   24 1
    47   23   55 1
    48   23   56 1
    49   24   25 1
    50   24   27 1
    51   24   57 1
    52   25   26 1
    53   25   58 1
    54   25   59 1
    55   26   60 1
    56   26   61 1
    57   27   35 1
    58   27   28 2
    59   28   29 1
    60   29   34 ar
    61   29   30 ar
    62   30   31 ar
    63   30   62 1
    64   31   32 ar
    65   31   63 1
    66   32   33 ar
    67   32   36 1
    68   33   34 ar
    69   33   64 1
    70   34   35 1
    71   35   65 1
@<TRIPOS>MOLECULE
ZINC38976760
   50    53     0     0     0
SMALL
USER_CHARGES

@<TRIPOS>ATOM
      1 C1          0.4947    2.5710    0.7352 C.3       1 <0>        -0.1216
      2 C2          0.3941    1.0915    0.4670 C.ar      1 <0>        -0.0982
      3 C3          0.3830    0.6240   -0.8341 C.ar      1 <0>        -0.0514
      4 C4          0.2908   -0.7329   -1.0801 C.ar      1 <0>        -0.1291
      5 C5          0.2101   -1.6229   -0.0251 C.ar      1 <0>        -0.0238
      6 C6          0.2222   -1.1556    1.2756 C.ar      1 <0>        -0.6502
      7 C7          0.3188    0.2014    1.5217 C.ar      1 <0>        -0.0198
      8 S1          0.1189   -2.2897    2.6201 S.o2      1 <0>         2.6258
      9 O1         -0.3996   -1.5629    3.7256 O.2       1 <0>        -0.9313
     10 O2         -0.5090   -3.4607    2.1163 O.2       1 <0>        -0.9314
     11 N1          1.6679   -2.7179    3.0197 N.2       1 <0>        -0.8253
     12 C8          1.8809   -3.5546    3.9920 C.2       1 <0>         0.4392
     13 C9          3.2909   -3.9483    4.3703 C.3       1 <0>         0.3113
     14 H1          3.7646   -4.3775    3.4874 H         1 <0>         0.1884
     15 N2          3.4645   -4.8989    5.4798 N.pl3     1 <0>        -0.5160
     16 C10         2.4010   -5.3543    6.0811 C.ar      1 <0>         0.3337
     17 C11         2.5203   -6.3061    7.1955 C.ar      1 <0>        -0.2039
     18 C12         1.3954   -6.7555    7.7940 C.ar      1 <0>         0.0538
     19 C13         0.1201   -6.3371    7.3790 C.ar      1 <0>        -0.0638
     20 C14        -0.0685   -5.4660    6.3640 C.ar      1 <0>        -0.0836
     21 C15         1.0419   -4.9296    5.6639 C.ar      1 <0>         0.2875
     22 N3          0.8523   -4.0774    4.6785 N.2       1 <0>        -0.4539
     23 N4          4.0202   -2.7247    4.7125 N.pl3     1 <0>        -0.7160
     24 C16         5.3219   -2.5327    4.2425 C.ar      1 <0>         0.1956
     25 C17         5.9598   -1.3142    4.4383 C.ar      1 <0>        -0.1590
     26 C18         7.2465   -1.1275    3.9731 C.ar      1 <0>        -0.0344
     27 C19         7.9003   -2.1525    3.3123 C.ar      1 <0>        -0.1250
     28 C20         7.2676   -3.3669    3.1158 C.ar      1 <0>        -0.0029
     29 C21         5.9825   -3.5613    3.5836 C.ar      1 <0>        -0.1910
     30 C22         7.9829   -4.4806    2.3953 C.3       1 <0>        -0.1349
     31 Br1         9.6620   -1.8926    2.6762 Br        1 <0>        -0.0284
     32 H2          1.5440    2.8558    0.8125 H         1 <0>         0.0784
     33 H3          0.0282    3.1210   -0.0821 H         1 <0>         0.0764
     34 H4         -0.0154    2.8064    1.6693 H         1 <0>         0.0735
     35 H5          0.4460    1.3192   -1.6582 H         1 <0>         0.1399
     36 H6          0.2814   -1.0980   -2.0965 H         1 <0>         0.1419
     37 H7          0.1374   -2.6831   -0.2174 H         1 <0>         0.1416
     38 H8          0.3320    0.5663    2.5382 H         1 <0>         0.1404
     39 H9          3.4911   -6.6408    7.5299 H         1 <0>         0.1855
     40 H10         1.4788   -7.4550    8.6126 H         1 <0>         0.1818
     41 H11        -0.7455   -6.7285    7.8927 H         1 <0>         0.1782
     42 H12        -1.0706   -5.1764    6.0841 H         1 <0>         0.1886
     43 H13         3.5994   -2.0479    5.2655 H         1 <0>         0.4208
     44 H14         5.4499   -0.5137    4.9537 H         1 <0>         0.1390
     45 H15         7.7428   -0.1803    4.1248 H         1 <0>         0.1451
     46 H16         5.4907   -4.5111    3.4338 H         1 <0>         0.1239
     47 H17         8.5287   -5.0885    3.1168 H         1 <0>         0.0864
     48 H18         7.2552   -5.1020    1.8733 H         1 <0>         0.0748
     49 H19         8.6822   -4.0567    1.6745 H         1 <0>         0.0864
     50 H20         4.3502   -5.1806    5.7575 H         1 <0>         0.4570
@<TRIPOS>BOND
     1    1    2 1
     2    1   32 1
     3    1   33 1
     4    1   34 1
     5    2    7 ar
     6    2    3 ar
     7    3    4 ar
     8    3   35 1
     9    4    5 ar
    10    4   36 1
    11    5    6 ar
    12    5   37 1
    13    6    7 ar
    14    6    8 1
    15    7   38 1
    16    8    9 2
    17    8   10 2
    18    8   11 1
    19   11   12 2
    20   12   22 1
    21   12   13 1
    22   13   14 1
    23   13   15 1
    24   13   23 1
    25   15   16 2
    26   15   50 1
    27   16   21 ar
    28   16   17 ar
    29   17   18 ar
    30   17   39 1
    31   18   19 ar
    32   18   40 1
    33   19   20 ar
    34   19   41 1
    35   20   21 ar
    36   20   42 1
    37   21   22 2
    38   23   24 1
    39   23   43 1
    40   24   29 ar
    41   24   25 ar
    42   25   26 ar
    43   25   44 1
    44   26   27 ar
    45   26   45 1
    46   27   28 ar
    47   27   31 1
    48   28   29 ar
    49   28   30 1
    50   29   46 1
    51   30   47 1
    52   30   48 1
    53   30   49 1
@<TRIPOS>MOLECULE
ZINC02493556
   49    53     0     0     0
SMALL
USER_CHARGES
N-(3-cyano-6-methyl-4,5,6,7-tetrahydrobenzothiophen-2-yl)-4-(2-furyl)-2-(trifluoromethyl)-1,5,9-triazabicyclo[4.3.0]nona-2,4,6,8-tetraene-7-carboxamide
@<TRIPOS>ATOM
      1 C1          0.3692    5.7487    0.1253 C.3       1 <0>        -0.1480
      2 C2          0.2016    4.2533    0.4022 C.3       1 <0>        -0.0871
      3 H1          0.0005    4.0983    1.4622 H         1 <0>         0.0770
      4 C3         -0.9619    3.7021   -0.4270 C.3       1 <0>        -0.1147
      5 C4         -1.2949    2.2792    0.0206 C.3       1 <0>        -0.0619
      6 C5         -0.0176    1.4484    0.0100 C.2       1 <0>        -0.0591
      7 C6          1.1972    2.0402    0.0016 C.2       1 <0>        -0.2097
      8 S1          2.3531    0.6994   -0.0176 S.3       1 <0>         0.2596
      9 C7          1.2405   -0.6289   -0.0138 C.2       1 <0>         0.0987
     10 C8          0.0021   -0.0041    0.0020 C.2       1 <0>        -0.1341
     11 C9         -1.2122   -0.7630    0.0097 C.1       1 <0>         0.2690
     12 N1         -2.1756   -1.3651    0.0158 N.1       1 <0>        -0.4263
     13 N2          1.5203   -1.9872   -0.0237 N.am      1 <0>        -0.6184
     14 C10         2.7994   -2.4117   -0.0389 C.2       1 <0>         0.5982
     15 O1          3.7091   -1.6028   -0.0439 O.2       1 <0>        -0.4813
     16 C11         3.0948   -3.8460   -0.0493 C.2       1 <0>        -0.2828
     17 C12         2.1568   -4.8950   -0.0457 C.2       1 <0>         0.1384
     18 N3          2.7989   -6.0327   -0.0579 N.2       1 <0>        -0.2785
     19 N4          4.1778   -5.7929   -0.0701 N.pl3     1 <0>        -0.2988
     20 C13         4.3733   -4.4399   -0.0711 C.2       1 <0>         0.3500
     21 N5          5.6010   -3.9256   -0.0746 N.2       1 <0>        -0.4162
     22 C14         6.6672   -4.7157   -0.0895 C.2       1 <0>         0.3085
     23 C15         6.5017   -6.1198   -0.0953 C.2       1 <0>        -0.1370
     24 C16         5.2523   -6.6376   -0.0854 C.2       1 <0>         0.1057
     25 C17         5.0470   -8.1305   -0.0907 C.3       1 <0>         0.5238
     26 F1          4.9698   -8.5859   -1.4113 F         1 <0>        -0.1549
     27 F2          6.1218   -8.7514    0.5546 F         1 <0>        -0.1539
     28 F3          3.8587   -8.4402    0.5796 F         1 <0>        -0.1472
     29 C18         8.0188   -4.1316   -0.0996 C.2       1 <0>        -0.0267
     30 C19         8.3159   -2.8014   -0.1010 C.2       1 <0>        -0.0960
     31 C20         9.7186   -2.7000   -0.1091 C.2       1 <0>        -0.2243
     32 C21        10.2067   -3.9581   -0.1207 C.2       1 <0>         0.0142
     33 O2          9.1781   -4.8191   -0.1149 O.3       1 <0>        -0.1643
     34 C22         1.4860    3.5096    0.0078 C.3       1 <0>        -0.0309
     35 H2          0.5654    5.9019   -0.9359 H         1 <0>         0.0573
     36 H3         -0.5433    6.2746    0.4058 H         1 <0>         0.0582
     37 H4          1.2051    6.1347    0.7088 H         1 <0>         0.0580
     38 H5         -1.8363    4.3388   -0.2922 H         1 <0>         0.0715
     39 H6         -0.6820    3.6897   -1.4804 H         1 <0>         0.0682
     40 H7         -2.0217    1.8407   -0.6632 H         1 <0>         0.0747
     41 H8         -1.7071    2.3027    1.0294 H         1 <0>         0.0796
     42 H9          0.7954   -2.6317   -0.0197 H         1 <0>         0.4185
     43 H10         1.0831   -4.7789   -0.0341 H         1 <0>         0.2134
     44 H11         7.3629   -6.7714   -0.1071 H         1 <0>         0.1922
     45 H12         7.6107   -1.9835   -0.0952 H         1 <0>         0.1689
     46 H13        10.2962   -1.7875   -0.1101 H         1 <0>         0.1628
     47 H14        11.2526   -4.2272   -0.1322 H         1 <0>         0.2180
     48 H15         2.2724    3.7262    0.7308 H         1 <0>         0.0828
     49 H16         1.8030    3.8258   -0.9860 H         1 <0>         0.0850
@<TRIPOS>BOND
     1    1    2 1
     2    1   35 1
     3    1   36 1
     4    1   37 1
     5    2    3 1
     6    2   34 1
     7    2    4 1
     8    4    5 1
     9    4   38 1
    10    4   39 1
    11    5    6 1
    12    5   40 1
    13    5   41 1
    14    6   10 1
    15    6    7 2
    16    7    8 1
    17    7   34 1
    18    8    9 1
    19    9   10 2
    20    9   13 1
    21   10   11 1
    22   11   12 3
    23   13   14 am
    24   13   42 1
    25   14   15 2
    26   14   16 1
    27   16   20 2
    28   16   17 1
    29   17   18 2
    30   17   43 1
    31   18   19 1
    32   19   24 1
    33   19   20 1
    34   20   21 1
    35   21   22 2
    36   22   23 1
    37   22   29 1
    38   23   24 2
    39   23   44 1
    40   24   25 1
    41   25   26 1
    42   25   27 1
    43   25   28 1
    44   29   33 1
    45   29   30 2
    46   30   31 1
    47   30   45 1
    48   31   32 2
    49   31   46 1
    50   32   33 1
    51   32   47 1
    52   34   48 1
    53   34   49 1
@<TRIPOS>MOLECULE
ZINC14013436
   58    62     0     0     0
SMALL
USER_CHARGES
N-(2,4-dimethylphenyl)-2-[(3,4-dimethylphenyl)-oxo-BLAHyl]acetamide
@<TRIPOS>ATOM
      1 C1          9.7101    5.0131    1.8698 C.3       1 <0>        -0.1151
      2 C2          8.5660    4.0332    1.9124 C.ar      1 <0>        -0.0935
      3 C3          7.9991    3.5825    0.7342 C.ar      1 <0>        -0.1083
      4 C4          6.9547    2.6799    0.7697 C.ar      1 <0>        -0.1143
      5 C5          6.4662    2.2331    1.9907 C.ar      1 <0>         0.1316
      6 C6          7.0375    2.6875    3.1719 C.ar      1 <0>        -0.1059
      7 C7          8.0855    3.5863    3.1294 C.ar      1 <0>        -0.1040
      8 C8          6.5150    2.2001    4.4988 C.3       1 <0>        -0.1168
      9 N1          5.4045    1.3226    2.0303 N.am      1 <0>        -0.6645
     10 C9          4.4594    1.3473    1.0698 C.2       1 <0>         0.5238
     11 O1          4.5795    2.0917    0.1198 O.2       1 <0>        -0.5158
     12 C10         3.2534    0.4499    1.1761 C.3       1 <0>        -0.1610
     13 C11         2.3776    0.6233   -0.0664 C.3       1 <0>         0.1351
     14 H1          2.9862    0.4195   -0.9475 H         1 <0>         0.1251
     15 C12         1.9079    2.0833   -0.1302 C.3       1 <0>        -0.0886
     16 S1          0.0898    1.8702   -0.1069 S.3       1 <0>         0.0076
     17 C13         0.0081    0.0933   -0.0240 C.2       1 <0>         0.4218
     18 N2          1.2961   -0.3598   -0.0124 N.am      1 <0>        -0.5587
     19 C14         1.4855   -1.7178    0.0491 C.2       1 <0>         0.5880
     20 O2          2.6141   -2.1768    0.0626 O.2       1 <0>        -0.5133
     21 C15         0.3705   -2.5812    0.0973 C.2       1 <0>        -0.3466
     22 C16         0.2129   -3.9825    0.1629 C.2       1 <0>         0.1459
     23 N3         -1.0618   -4.2550    0.1846 N.2       1 <0>        -0.2604
     24 N4         -1.7971   -3.0641    0.1351 N.pl3     1 <0>        -0.2983
     25 C17        -0.9194   -2.0247    0.0810 C.2       1 <0>         0.3662
     26 N5         -1.0422   -0.6952    0.0199 N.2       1 <0>        -0.5016
     27 C18        -3.1937   -2.9603    0.1404 C.ar      1 <0>         0.1374
     28 C19        -3.8103   -1.8993    0.7909 C.ar      1 <0>        -0.1085
     29 C20        -5.1873   -1.7967    0.7894 C.ar      1 <0>        -0.0974
     30 C21        -5.9530   -2.7556    0.1512 C.ar      1 <0>        -0.0801
     31 C22        -5.3425   -3.8161   -0.4924 C.ar      1 <0>        -0.0717
     32 C23        -3.9652   -3.9210   -0.4998 C.ar      1 <0>        -0.0999
     33 C24        -6.1805   -4.8583   -1.1870 C.3       1 <0>        -0.1186
     34 C25        -7.4558   -2.6439    0.1569 C.3       1 <0>        -0.1201
     35 H2         10.6538    4.4686    1.8365 H         1 <0>         0.0707
     36 H3          9.6199    5.6385    0.9816 H         1 <0>         0.0669
     37 H4          9.6841    5.6410    2.7604 H         1 <0>         0.0661
     38 H5          8.3765    3.9338   -0.2149 H         1 <0>         0.1255
     39 H6          6.5154    2.3249   -0.1508 H         1 <0>         0.1449
     40 H7          8.5302    3.9402    4.0478 H         1 <0>         0.1260
     41 H8          7.0577    1.3026    4.7954 H         1 <0>         0.0724
     42 H9          6.6561    2.9755    5.2518 H         1 <0>         0.0729
     43 H10         5.4534    1.9699    4.4089 H         1 <0>         0.0625
     44 H11         5.3486    0.6736    2.7491 H         1 <0>         0.4130
     45 H12         2.6802    0.7152    2.0645 H         1 <0>         0.1094
     46 H13         3.5781   -0.5880    1.2497 H         1 <0>         0.1269
     47 H14         2.2352    2.5604   -1.0540 H         1 <0>         0.1432
     48 H15         2.2484    2.6436    0.7406 H         1 <0>         0.1319
     49 H16         1.0134   -4.7069    0.1902 H         1 <0>         0.2065
     50 H17        -3.2131   -1.1527    1.2933 H         1 <0>         0.1345
     51 H18        -5.6672   -0.9695    1.2913 H         1 <0>         0.1350
     52 H19        -3.4889   -4.7496   -1.0028 H         1 <0>         0.1347
     53 H20        -6.4197   -5.6583   -0.4864 H         1 <0>         0.0756
     54 H21        -7.1030   -4.4023   -1.5466 H         1 <0>         0.0753
     55 H22        -5.6250   -5.2681   -2.0306 H         1 <0>         0.0684
     56 H23        -7.8556   -3.1655    1.0265 H         1 <0>         0.0749
     57 H24        -7.7419   -1.5930    0.2002 H         1 <0>         0.0694
     58 H25        -7.8569   -3.0924   -0.7520 H         1 <0>         0.0736
@<TRIPOS>BOND
     1    1    2 1
     2    1   35 1
     3    1   36 1
     4    1   37 1
     5    2    7 ar
     6    2    3 ar
     7    3    4 ar
     8    3   38 1
     9    4    5 ar
    10    4   39 1
    11    5    6 ar
    12    5    9 1
    13    6    7 ar
    14    6    8 1
    15    7   40 1
    16    8   41 1
    17    8   42 1
    18    8   43 1
    19    9   10 am
    20    9   44 1
    21   10   11 2
    22   10   12 1
    23   12   13 1
    24   12   45 1
    25   12   46 1
    26   13   14 1
    27   13   18 1
    28   13   15 1
    29   15   16 1
    30   15   47 1
    31   15   48 1
    32   16   17 1
    33   17   26 2
    34   17   18 1
    35   18   19 am
    36   19   20 2
    37   19   21 1
    38   21   25 2
    39   21   22 1
    40   22   23 2
    41   22   49 1
    42   23   24 1
    43   24   25 1
    44   24   27 1
    45   25   26 1
    46   27   32 ar
    47   27   28 ar
    48   28   29 ar
    49   28   50 1
    50   29   30 ar
    51   29   51 1
    52   30   31 ar
    53   30   34 1
    54   31   32 ar
    55   31   33 1
    56   32   52 1
    57   33   53 1
    58   33   54 1
    59   33   55 1
    60   34   56 1
    61   34   57 1
    62   34   58 1
@<TRIPOS>MOLECULE
ZINC20713196
   56    60     0     0     0
SMALL
USER_CHARGES
(3aR,4R,9bS)-N-methyl-4-(2-nitrophenyl)-N-phenyl-3a,4,5,9b-tetrahydro-3H-cyclopenta[c]quinoline-8-sulfonamide
@<TRIPOS>ATOM
      1 C1          6.0558    1.6580   -0.6865 C.3       1 <0>         0.0816
      2 N1          4.7786    2.3410   -0.4668 N.pl3     1 <0>        -0.9508
      3 C2          3.5774    1.6703   -0.7080 C.ar      1 <0>         0.1355
      4 C3          2.6803    2.1646   -1.6464 C.ar      1 <0>        -0.1055
      5 C4          1.4936    1.4989   -1.8824 C.ar      1 <0>        -0.1049
      6 C5          1.1978    0.3415   -1.1858 C.ar      1 <0>        -0.1170
      7 C6          2.0884   -0.1531   -0.2506 C.ar      1 <0>        -0.1116
      8 C7          3.2769    0.5076   -0.0097 C.ar      1 <0>        -0.1188
      9 S1          4.7589    3.9083    0.0674 S.o2      1 <0>         2.6846
     10 O1          5.9439    4.5197   -0.4236 O.2       1 <0>        -0.9527
     11 O2          3.4638    4.4186   -0.2182 O.2       1 <0>        -0.9469
     12 C8          4.9062    3.8623    1.8227 C.ar      1 <0>        -0.7205
     13 C9          3.7691    3.8013    2.6078 C.ar      1 <0>         0.0223
     14 C10         3.8881    3.7586    3.9826 C.ar      1 <0>        -0.2070
     15 C11         5.1469    3.7879    4.5720 C.ar      1 <0>         0.2691
     16 C12         6.2861    3.8576    3.7905 C.ar      1 <0>        -0.1577
     17 C13         6.1553    3.8930    2.4085 C.ar      1 <0>         0.0255
     18 C14         7.6744    3.9031    4.3706 C.3       1 <0>        -0.0054
     19 H1          8.1701    2.9733    4.0550 H         1 <0>         0.0847
     20 C15         8.3222    5.1978    3.8983 C.2       1 <0>        -0.1720
     21 C16         8.1968    6.1299    4.8097 C.2       1 <0>        -0.1636
     22 C17         7.4539    5.5925    6.0200 C.3       1 <0>        -0.0805
     23 C18         7.6630    4.0642    5.9017 C.3       1 <0>        -0.0858
     24 H2          8.5517    3.6612    6.4094 H         1 <0>         0.1062
     25 C19         6.5199    3.3050    6.5486 C.3       1 <0>         0.1842
     26 H3          6.4847    3.5088    7.6290 H         1 <0>         0.1287
     27 N2          5.2468    3.7455    5.9673 N.pl3     1 <0>        -0.7509
     28 C20         6.6978    1.8281    6.3070 C.ar      1 <0>        -0.0326
     29 C21         5.9716    1.1977    5.3137 C.ar      1 <0>        -0.1135
     30 C22         6.1386   -0.1557    5.0887 C.ar      1 <0>        -0.0635
     31 C23         7.0236   -0.8814    5.8643 C.ar      1 <0>        -0.1174
     32 C24         7.7458   -0.2522    6.8608 C.ar      1 <0>        -0.0530
     33 C25         7.5829    1.1028    7.0822 C.ar      1 <0>        -0.0409
     34 N3          8.3559    1.7765    8.1496 N.pl3     1 <0>         0.0294
     35 O3          9.0659    1.1227    8.8926 O.2       1 <0>        -0.1545
     36 O4          8.2821    2.9847    8.2850 O.3       1 <0>        -0.1613
     37 H4          6.8833    2.3413   -0.4449 H         1 <0>         0.0890
     38 H5          6.1304    1.3499   -1.7398 H         1 <0>         0.0740
     39 H6          6.1127    0.7700   -0.0398 H         1 <0>         0.0664
     40 H7          2.9108    3.0682   -2.1910 H         1 <0>         0.1290
     41 H8          0.7977    1.8801   -2.6151 H         1 <0>         0.1298
     42 H9          0.2690   -0.1772   -1.3723 H         1 <0>         0.1262
     43 H10         1.8543   -1.0572    0.2917 H         1 <0>         0.1265
     44 H11         3.9719    0.1211    0.7211 H         1 <0>         0.1249
     45 H12         2.7924    3.7832    2.1472 H         1 <0>         0.1393
     46 H13         3.0036    3.7063    4.6000 H         1 <0>         0.1336
     47 H14         7.0375    3.9445    1.7876 H         1 <0>         0.1360
     48 H15         8.8411    5.4184    2.9538 H         1 <0>         0.1323
     49 H16         8.6076    7.1343    4.6294 H         1 <0>         0.1316
     50 H17         7.8951    6.0111    6.9366 H         1 <0>         0.0787
     51 H18         6.3944    5.8815    5.9580 H         1 <0>         0.0837
     52 H19         4.4110    4.0287    6.6241 H         1 <0>         0.4364
     53 H20         5.2768    1.7637    4.7110 H         1 <0>         0.1518
     54 H21         5.5746   -0.6473    4.3098 H         1 <0>         0.1427
     55 H22         7.1509   -1.9398    5.6914 H         1 <0>         0.1490
     56 H23         8.4371   -0.8191    7.4667 H         1 <0>         0.1556
@<TRIPOS>BOND
     1    1    2 1
     2    1   37 1
     3    1   38 1
     4    1   39 1
     5    2    3 1
     6    2    9 1
     7    3    8 ar
     8    3    4 ar
     9    4    5 ar
    10    4   40 1
    11    5    6 ar
    12    5   41 1
    13    6    7 ar
    14    6   42 1
    15    7    8 ar
    16    7   43 1
    17    8   44 1
    18    9   10 2
    19    9   11 2
    20    9   12 1
    21   12   17 ar
    22   12   13 ar
    23   13   14 ar
    24   13   45 1
    25   14   15 ar
    26   14   46 1
    27   15   27 1
    28   15   16 ar
    29   16   17 ar
    30   16   18 1
    31   17   47 1
    32   18   19 1
    33   18   23 1
    34   18   20 1
    35   20   21 2
    36   20   48 1
    37   21   22 1
    38   21   49 1
    39   22   23 1
    40   22   50 1
    41   22   51 1
    42   23   24 1
    43   23   25 1
    44   25   26 1
    45   25   27 1
    46   25   28 1
    47   27   52 1
    48   28   33 ar
    49   28   29 ar
    50   29   30 ar
    51   29   53 1
    52   30   31 ar
    53   30   54 1
    54   31   32 ar
    55   31   55 1
    56   32   33 ar
    57   32   56 1
    58   33   34 1
    59   34   35 2
    60   34   36 1
@<TRIPOS>MOLECULE
ZINC01884162
   36    38     0     0     0
SMALL
USER_CHARGES
N-[(1E,3E)-1-(benzotriazol-1-yl)-4-bromo-3,4-dichloro-2-nitro-buta-1,3-dienyl]aniline
@<TRIPOS>ATOM
      1 C1         -0.5808    0.4296    3.4759 C.ar      1 <0>        -0.1276
      2 C2         -0.5892   -0.8645    2.9857 C.ar      1 <0>        -0.0824
      3 C3          0.2839   -1.2299    1.9814 C.ar      1 <0>        -0.1372
      4 C4          1.1744   -0.2943    1.4616 C.ar      1 <0>         0.1381
      5 C5          1.1834    1.0049    1.9621 C.ar      1 <0>        -0.1659
      6 C6          0.3025    1.3628    2.9623 C.ar      1 <0>        -0.0793
      7 N1          2.0556   -0.6577    0.4499 N.pl3     1 <0>        -0.6413
      8 C7          2.9823    0.2095    0.0263 C.2       1 <0>         0.5418
      9 C8          4.3541   -0.2547   -0.2523 C.2       1 <0>        -0.1344
     10 C9          5.2397    0.5721   -0.8775 C.2       1 <0>         0.0552
     11 C10         6.5740    0.1728   -1.0448 C.2       1 <0>        -0.1300
     12 Cl1         7.7397    1.2877   -1.6865 Cl        1 <0>         0.0009
     13 Br1         7.1030   -1.5799   -0.5713 Br        1 <0>         0.0486
     14 Cl2         4.7162    2.1189   -1.4665 Cl        1 <0>         0.0253
     15 N2          4.7695   -1.6185    0.1469 N.pl3     1 <0>         0.0066
     16 O1          4.7021   -2.6076   -0.7201 O.2       1 <0>        -0.1457
     17 O2          5.2063   -1.8426    1.3689 O.3       1 <0>        -0.1259
     18 N3          2.6582    1.5232   -0.1478 N.pl3     1 <0>        -0.3961
     19 C11         1.5394    2.0209   -0.7890 C.ar      1 <0>         0.0927
     20 C12         0.4524    1.4349   -1.4222 C.ar      1 <0>        -0.1123
     21 C13        -0.5250    2.2298   -1.9845 C.ar      1 <0>        -0.0539
     22 C14        -0.4336    3.6122   -1.9118 C.ar      1 <0>        -0.1191
     23 C15         0.6372    4.2109   -1.2878 C.ar      1 <0>        -0.0274
     24 C16         1.6409    3.4202   -0.7165 C.ar      1 <0>        -0.0058
     25 N4          2.7856    3.7145   -0.0524 N.2       1 <0>        -0.1925
     26 N5          3.3947    2.6342    0.2887 N.2       1 <0>         0.0634
     27 H1         -1.2660    0.7121    4.2614 H         1 <0>         0.1319
     28 H2         -1.2803   -1.5896    3.3896 H         1 <0>         0.1363
     29 H3          0.2767   -2.2400    1.5995 H         1 <0>         0.1344
     30 H4          1.8758    1.7326    1.5652 H         1 <0>         0.1259
     31 H5          0.3057    2.3716    3.3481 H         1 <0>         0.1308
     32 H6          1.9911   -1.6583   -0.0025 H         1 <0>         0.4687
     33 H7          0.3741    0.3592   -1.4786 H         1 <0>         0.1322
     34 H8         -1.3684    1.7730   -2.4810 H         1 <0>         0.1470
     35 H9         -1.2072    4.2238   -2.3521 H         1 <0>         0.1478
     36 H10         0.7026    5.2878   -1.2389 H         1 <0>         0.1493
@<TRIPOS>BOND
     1    1    6 ar
     2    1    2 ar
     3    1   27 1
     4    2    3 ar
     5    2   28 1
     6    3    4 ar
     7    3   29 1
     8    4    5 ar
     9    4    7 1
    10    5    6 ar
    11    5   30 1
    12    6   31 1
    13    7    8 1
    14    7   32 1
    15    8    9 2
    16    8   18 1
    17    9   10 1
    18    9   15 1
    19   10   11 2
    20   10   14 1
    21   11   12 1
    22   11   13 1
    23   15   16 2
    24   15   17 1
    25   18   26 1
    26   18   19 1
    27   19   24 ar
    28   19   20 ar
    29   20   21 ar
    30   20   33 1
    31   21   22 ar
    32   21   34 1
    33   22   23 ar
    34   22   35 1
    35   23   24 ar
    36   23   36 1
    37   24   25 1
    38   25   26 2
@<TRIPOS>MOLECULE
ZINC38754083
   54    58     0     0     0
SMALL
USER_CHARGES

@<TRIPOS>ATOM
      1 C1          2.7168    4.7368   -6.1865 C.ar      1 <0>        -0.1621
      2 C2          3.9617    4.1612   -6.0433 C.ar      1 <0>        -0.0235
      3 C3          4.4867    3.9468   -4.7680 C.ar      1 <0>        -0.0938
      4 C4          3.7457    4.3177   -3.6415 C.ar      1 <0>         0.1683
      5 C5          2.4998    4.8934   -3.7979 C.ar      1 <0>        -0.1918
      6 C6          1.9856    5.1030   -5.0672 C.ar      1 <0>         0.1563
      7 F1          0.7666    5.6664   -5.2148 F         1 <0>        -0.1212
      8 F2          4.2468    4.1130   -2.4037 F         1 <0>        -0.1173
      9 C7          5.8198    3.3300   -4.6087 C.2       1 <0>         0.1166
     10 C8          6.8351    3.8008   -3.8335 C.2       1 <0>        -0.2459
     11 C9          7.9216    2.9242   -3.9637 C.2       1 <0>         0.0878
     12 N1          7.5795    1.9666   -4.7803 N.2       1 <0>        -0.2901
     13 O1          6.2469    2.1982   -5.1995 O.3       1 <0>        -0.0588
     14 C10         9.2562    3.0649   -3.2781 C.3       1 <0>         0.1936
     15 N2          9.2586    2.2714   -2.0466 N.am      1 <0>        -0.7247
     16 C11        10.3555    2.2455   -1.2638 C.2       1 <0>         0.5278
     17 O2         11.3405    2.8790   -1.5790 O.2       1 <0>        -0.5305
     18 C12        10.3580    1.4294    0.0031 C.3       1 <0>        -0.1641
     19 C13        11.7575    1.4511    0.6210 C.3       1 <0>         0.1433
     20 H1         12.0512    2.4883    0.7820 H         1 <0>         0.1106
     21 C14        12.7482    0.8040   -0.3731 C.3       1 <0>        -0.0829
     22 S1         13.7755   -0.1821    0.7962 S.3       1 <0>        -0.0576
     23 C15        12.6282   -0.2390    2.1486 C.2       1 <0>         0.3737
     24 N3         12.6218   -1.0489    3.1607 N.2       1 <0>        -0.4921
     25 C16        11.5181   -0.9505    4.1151 C.3       1 <0>         0.0851
     26 H2         10.6837   -1.5465    3.7454 H         1 <0>         0.0877
     27 C17        11.9121   -1.4671    5.4958 C.3       1 <0>        -0.0976
     28 C18        10.6809   -1.4172    6.4075 C.3       1 <0>        -0.1220
     29 C19        10.1562    0.0150    6.5064 C.3       1 <0>        -0.1224
     30 C20         9.7948    0.5423    5.1131 C.3       1 <0>        -0.0979
     31 C21        11.0585    0.4974    4.2541 C.3       1 <0>        -0.1329
     32 H3         11.8492    1.0634    4.7467 H         1 <0>         0.1124
     33 C22        10.8210    1.1114    2.9036 C.2       1 <0>         0.5379
     34 O3          9.8919    1.8637    2.7011 O.2       1 <0>        -0.4845
     35 N4         11.7097    0.7748    1.9076 N.am      1 <0>        -0.6023
     36 H4          2.3124    4.9068   -7.1733 H         1 <0>         0.1549
     37 H5          4.5295    3.8764   -6.9168 H         1 <0>         0.1542
     38 H6          1.9257    5.1807   -2.9293 H         1 <0>         0.1601
     39 H7          6.8086    4.6930   -3.2256 H         1 <0>         0.1665
     40 H8         10.0446    2.7088   -3.9413 H         1 <0>         0.0972
     41 H9          9.4314    4.1130   -3.0354 H         1 <0>         0.1026
     42 H10         8.4708    1.7648   -1.7945 H         1 <0>         0.4067
     43 H11         9.6426    1.8517    0.7088 H         1 <0>         0.1316
     44 H12        10.0781    0.4013   -0.2265 H         1 <0>         0.1004
     45 H13        12.2313    0.1609   -1.0853 H         1 <0>         0.1123
     46 H14        13.3451    1.5587   -0.8852 H         1 <0>         0.1450
     47 H15        12.2657   -2.4950    5.4145 H         1 <0>         0.0808
     48 H16        12.7001   -0.8384    5.9104 H         1 <0>         0.0706
     49 H17         9.9017   -2.0599    5.9978 H         1 <0>         0.0659
     50 H18        10.9529   -1.7718    7.4017 H         1 <0>         0.0735
     51 H19         9.2696    0.0320    7.1403 H         1 <0>         0.0726
     52 H20        10.9242    0.6516    6.9457 H         1 <0>         0.0663
     53 H21         9.0153   -0.0821    4.6764 H         1 <0>         0.0728
     54 H22         9.4422    1.5707    5.1912 H         1 <0>         0.0810
@<TRIPOS>BOND
     1    1    6 ar
     2    1    2 ar
     3    1   36 1
     4    2    3 ar
     5    2   37 1
     6    3    4 ar
     7    3    9 1
     8    4    5 ar
     9    4    8 1
    10    5    6 ar
    11    5   38 1
    12    6    7 1
    13    9   13 1
    14    9   10 2
    15   10   11 1
    16   10   39 1
    17   11   12 2
    18   11   14 1
    19   12   13 1
    20   14   15 1
    21   14   40 1
    22   14   41 1
    23   15   16 am
    24   15   42 1
    25   16   17 2
    26   16   18 1
    27   18   19 1
    28   18   43 1
    29   18   44 1
    30   19   20 1
    31   19   35 1
    32   19   21 1
    33   21   22 1
    34   21   45 1
    35   21   46 1
    36   22   23 1
    37   23   35 1
    38   23   24 2
    39   24   25 1
    40   25   26 1
    41   25   31 1
    42   25   27 1
    43   27   28 1
    44   27   47 1
    45   27   48 1
    46   28   29 1
    47   28   49 1
    48   28   50 1
    49   29   30 1
    50   29   51 1
    51   29   52 1
    52   30   31 1
    53   30   53 1
    54   30   54 1
    55   31   32 1
    56   31   33 1
    57   33   34 2
    58   33   35 am
@<TRIPOS>MOLECULE
ZINC09056635
   58    62     0     0     0
SMALL
USER_CHARGES
3-[(7,10-dioxabicyclo[4.4.0]deca-2,4,11-trien-8-ylmethyl-methyl-amino)methyl]-8-methyl-7-(p-tolyl)-9-thia-2,4-diazabicyclo[4.3.0]nona-2,7,10-trien-5-one
@<TRIPOS>ATOM
      1 C1          5.6454   -0.2301   -1.2884 C.3       1 <0>        -0.1206
      2 C2          4.2779    0.3875   -1.1488 C.ar      1 <0>        -0.0712
      3 C3          3.3874    0.3357   -2.2062 C.ar      1 <0>        -0.1203
      4 C4          2.1337    0.8995   -2.0841 C.ar      1 <0>        -0.0973
      5 C5          1.7654    1.5221   -0.8923 C.ar      1 <0>        -0.0505
      6 C6          2.6691    1.5758    0.1681 C.ar      1 <0>        -0.0720
      7 C7          3.9182    1.0043    0.0361 C.ar      1 <0>        -0.1182
      8 C8          0.4205    2.1300   -0.7551 C.2       1 <0>        -0.0335
      9 C9         -0.6927    1.3582   -0.7887 C.2       1 <0>        -0.1168
     10 S1         -2.0169    2.5353   -0.5941 S.3       1 <0>         0.1897
     11 C10        -1.0546    4.0201   -0.4626 C.2       1 <0>         0.0600
     12 C11         0.2703    3.5698   -0.5811 C.2       1 <0>        -0.1904
     13 C12         1.2781    4.5842   -0.5146 C.2       1 <0>         0.5526
     14 O1          2.4578    4.2915   -0.6080 O.2       1 <0>        -0.4750
     15 N1          0.9034    5.8661   -0.3480 N.am      1 <0>        -0.6235
     16 H1          1.5821    6.5576   -0.3020 H         1 <0>         0.4262
     17 C13        -0.4057    6.2103   -0.2426 C.2       1 <0>         0.3533
     18 N2         -1.3478    5.3075   -0.2990 N.2       1 <0>        -0.4881
     19 C14        -0.7780    7.6587   -0.0569 C.3       1 <0>         0.0551
     20 C15        -2.7504    7.1306    1.2444 C.3       1 <0>        -0.0510
     21 C16        -2.6537    9.1895   -0.0262 C.3       1 <0>         0.0068
     22 C17        -2.5516    9.6934   -1.4672 C.3       1 <0>         0.0153
     23 H2         -1.5282    9.5794   -1.8248 H         1 <0>         0.1055
     24 C18        -2.9606   11.1713   -1.5289 C.3       1 <0>         0.0340
     25 O2         -2.8664   11.6057   -2.8900 O.3       1 <0>        -0.2932
     26 C19        -3.4078   10.7861   -3.8322 C.ar      1 <0>         0.0510
     27 C20        -3.6743   11.2867   -5.0980 C.ar      1 <0>        -0.1081
     28 C21        -4.2180   10.4652   -6.0671 C.ar      1 <0>        -0.0986
     29 C22        -4.4978    9.1425   -5.7780 C.ar      1 <0>        -0.1088
     30 C23        -4.2358    8.6377   -4.5185 C.ar      1 <0>        -0.1048
     31 C24        -3.6913    9.4572   -3.5408 C.ar      1 <0>         0.0379
     32 O3         -3.4414    8.9466   -2.3041 O.3       1 <0>        -0.3166
     33 C25        -0.7884   -0.1363   -0.9567 C.3       1 <0>        -0.0808
     34 H3          6.3422    0.5136   -1.6749 H         1 <0>         0.0735
     35 H4          5.9884   -0.5775   -0.3139 H         1 <0>         0.0690
     36 H5          5.5947   -1.0732   -1.9775 H         1 <0>         0.0696
     37 H6          3.6737   -0.1471   -3.1288 H         1 <0>         0.1262
     38 H7          1.4394    0.8589   -2.9104 H         1 <0>         0.1209
     39 H8          2.3907    2.0604    1.0922 H         1 <0>         0.1127
     40 H9          4.6178    1.0422    0.8579 H         1 <0>         0.1239
     41 H10        -0.3262    8.0352    0.8609 H         1 <0>         0.1710
     42 H11        -0.4148    8.2388   -0.9052 H         1 <0>         0.1596
     43 H12        -2.2361    7.5337    2.1168 H         1 <0>         0.1240
     44 H13        -3.8203    7.3186    1.3343 H         1 <0>         0.1286
     45 H14        -2.5741    6.0568    1.1827 H         1 <0>         0.1402
     46 H15        -3.6841    9.2791    0.3178 H         1 <0>         0.1530
     47 H16        -2.0036    9.7857    0.6141 H         1 <0>         0.1597
     48 H17        -3.9860   11.2840   -1.1768 H         1 <0>         0.0908
     49 H18        -2.2904   11.7645   -0.9066 H         1 <0>         0.1327
     50 H19        -3.4563   12.3195   -5.3265 H         1 <0>         0.1422
     51 H20        -4.4244   10.8570   -7.0521 H         1 <0>         0.1413
     52 H21        -4.9217    8.5026   -6.5377 H         1 <0>         0.1405
     53 H22        -4.4550    7.6040   -4.2953 H         1 <0>         0.1375
     54 H23        -0.7605   -0.6146    0.0224 H         1 <0>         0.0918
     55 H24        -1.7241   -0.3865   -1.4567 H         1 <0>         0.0849
     56 H25         0.0501   -0.4889   -1.5574 H         1 <0>         0.0941
     57 N3         -2.2506    7.7678    0.0079 N.4       1 <0>        -0.3840
     58 H26        -2.6567    7.2865   -0.8030 H         1 <0>         0.4486
@<TRIPOS>BOND
     1    1    2 1
     2    1   34 1
     3    1   35 1
     4    1   36 1
     5    2    7 ar
     6    2    3 ar
     7    3    4 ar
     8    3   37 1
     9    4    5 ar
    10    4   38 1
    11    5    6 ar
    12    5    8 1
    13    6    7 ar
    14    6   39 1
    15    7   40 1
    16    8   12 1
    17    8    9 2
    18    9   10 1
    19    9   33 1
    20   10   11 1
    21   11   18 1
    22   11   12 2
    23   12   13 1
    24   13   14 2
    25   13   15 am
    26   15   16 1
    27   15   17 1
    28   17   18 2
    29   17   19 1
    30   19   41 1
    31   19   42 1
    32   19   57 1
    33   20   43 1
    34   20   44 1
    35   20   45 1
    36   20   57 1
    37   21   22 1
    38   21   46 1
    39   21   47 1
    40   21   57 1
    41   22   23 1
    42   22   32 1
    43   22   24 1
    44   24   25 1
    45   24   48 1
    46   24   49 1
    47   25   26 1
    48   26   31 ar
    49   26   27 ar
    50   27   28 ar
    51   27   50 1
    52   28   29 ar
    53   28   51 1
    54   29   30 ar
    55   29   52 1
    56   30   31 ar
    57   30   53 1
    58   31   32 1
    59   33   54 1
    60   33   55 1
    61   33   56 1
    62   57   58 1
@<TRIPOS>MOLECULE
ZINC21253864
   52    55     0     0     0
SMALL
USER_CHARGES
N-[4-[[1-(2,4-dimethylphenyl)imidazol-2-yl]sulfanylmethyl]-2-oxo-chromen-7-yl]acetamide
@<TRIPOS>ATOM
      1 C1          7.4705   -8.6503    2.8063 C.3       1 <0>        -0.1257
      2 C2          5.9697   -8.6801    2.9401 C.ar      1 <0>        -0.0571
      3 C3          5.2978   -9.8884    2.9069 C.ar      1 <0>        -0.1140
      4 C4          3.9225   -9.9188    3.0292 C.ar      1 <0>        -0.0898
      5 C5          3.2145   -8.7347    3.1856 C.ar      1 <0>         0.0792
      6 C6          3.8912   -7.5231    3.2128 C.ar      1 <0>        -0.0598
      7 C7          5.2674   -7.4994    3.0952 C.ar      1 <0>        -0.1123
      8 C8          3.1258   -6.2352    3.3762 C.3       1 <0>        -0.1334
      9 N1          1.8183   -8.7624    3.3100 N.pl3     1 <0>        -0.3876
     10 C9          1.0974   -9.3222    4.3432 C.2       1 <0>        -0.0203
     11 C10        -0.2027   -9.1254    4.0654 C.2       1 <0>        -0.0105
     12 N2         -0.2919   -8.4606    2.9010 N.2       1 <0>        -0.4779
     13 C11         0.9144   -8.2400    2.4324 C.2       1 <0>         0.1729
     14 S1          1.3002   -7.4047    0.9297 S.3       1 <0>         0.0425
     15 C12        -0.3696   -7.0236    0.3444 C.3       1 <0>        -0.1172
     16 C13        -0.2861   -6.2866   -0.9675 C.2       1 <0>         0.1524
     17 C14        -0.2785   -6.9605   -2.1470 C.2       1 <0>        -0.2592
     18 C15        -0.2001   -6.2481   -3.3613 C.2       1 <0>         0.5311
     19 O1         -0.1941   -6.8647   -4.4117 O.3       1 <0>        -0.3420
     20 O2         -0.1322   -4.9079   -3.3895 O.3       1 <0>        -0.2363
     21 C16        -0.1355   -4.1779   -2.2534 C.2       1 <0>         0.1655
     22 C17        -0.2114   -4.8247   -1.0054 C.2       1 <0>        -0.1760
     23 C18        -0.2155   -4.0726    0.1749 C.2       1 <0>        -0.0142
     24 C19        -0.1402   -2.7115    0.1123 C.2       1 <0>        -0.1400
     25 C20        -0.0706   -2.0642   -1.1210 C.2       1 <0>         0.2481
     26 C21        -0.0654   -2.7944   -2.3002 C.2       1 <0>        -0.1405
     27 N3          0.0001   -0.6716   -1.1688 N.am      1 <0>        -0.6883
     28 C22        -0.6054   -0.0001   -2.1683 C.2       1 <0>         0.5194
     29 O3         -1.1410   -0.6086   -3.0704 O.2       1 <0>        -0.5178
     30 C23        -0.6170    1.5069   -2.1648 C.3       1 <0>        -0.1792
     31 H1          7.8489   -9.6769    2.6925 H         1 <0>         0.0724
     32 H2          7.9099   -8.1952    3.7062 H         1 <0>         0.0784
     33 H3          7.7481   -8.0571    1.9225 H         1 <0>         0.0769
     34 H4          5.8491  -10.8091    2.7855 H         1 <0>         0.1366
     35 H5          3.3983  -10.8627    3.0035 H         1 <0>         0.1320
     36 H6          5.7948   -6.5573    3.1205 H         1 <0>         0.1353
     37 H7          3.8281   -5.3886    3.3744 H         1 <0>         0.0762
     38 H8          2.5762   -6.2537    4.3289 H         1 <0>         0.0718
     39 H9          2.4145   -6.1234    2.5446 H         1 <0>         0.0844
     40 H10         1.5006   -9.8239    5.2105 H         1 <0>         0.1849
     41 H11        -1.0345   -9.4443    4.6760 H         1 <0>         0.1831
     42 H12        -0.9314   -7.9589    0.2044 H         1 <0>         0.1420
     43 H13        -0.8836   -6.3947    1.0862 H         1 <0>         0.1380
     44 H14        -0.3320   -8.0392   -2.1546 H         1 <0>         0.1997
     45 H15        -0.2737   -4.5683    1.1327 H         1 <0>         0.1609
     46 H16        -0.1390   -2.1317    1.0235 H         1 <0>         0.1597
     47 H17        -0.0072   -2.2867   -3.2516 H         1 <0>         0.1733
     48 H18         0.5500   -0.1218   -0.3908 H         1 <0>         0.4564
     49 H19        -1.1532    1.8715   -3.0534 H         1 <0>         0.1053
     50 H20         0.4171    1.8816   -2.1811 H         1 <0>         0.1013
     51 H21        -1.1234    1.8676   -1.2573 H         1 <0>         0.1015
     52 H22        -0.1334   -6.3230   -5.3671 H         1 <0>         0.5179
@<TRIPOS>BOND
     1    1    2 1
     2    1   31 1
     3    1   32 1
     4    1   33 1
     5    2    7 ar
     6    2    3 ar
     7    3    4 ar
     8    3   34 1
     9    4    5 ar
    10    4   35 1
    11    5    6 ar
    12    5    9 1
    13    6    7 ar
    14    6    8 1
    15    7   36 1
    16    8   37 1
    17    8   38 1
    18    8   39 1
    19    9   13 1
    20    9   10 1
    21   10   11 2
    22   10   40 1
    23   11   12 1
    24   11   41 1
    25   12   13 2
    26   13   14 1
    27   14   15 1
    28   15   16 1
    29   15   42 1
    30   15   43 1
    31   16   22 2
    32   16   17 1
    33   17   18 2
    34   17   44 1
    35   18   19 1
    36   18   20 1
    37   19   52 1
    38   20   21 1
    39   21   26 2
    40   21   22 1
    41   22   23 1
    42   23   24 2
    43   23   45 1
    44   24   25 1
    45   24   46 1
    46   25   26 1
    47   25   27 2
    48   26   47 1
    49   27   28 am
    50   27   48 1
    51   28   29 2
    52   28   30 1
    53   30   49 1
    54   30   50 1
    55   30   51 1
@<TRIPOS>MOLECULE
ZINC17242564
   59    63     0     0     0
SMALL
USER_CHARGES

@<TRIPOS>ATOM
      1 C1         -0.0187    1.5258    0.0104 C.3       1 <0>        -0.1462
      2 C2          0.0021   -0.0041    0.0020 C.3       1 <0>        -0.0527
      3 C3         -1.4326   -0.5358    0.0255 C.3       1 <0>        -0.0911
      4 C4         -1.4101   -2.0450    0.0652 C.2       1 <0>         0.2289
      5 C5         -0.3576   -2.7019    0.6738 C.2       1 <0>        -0.2648
      6 C6         -0.3852   -4.2184    0.6888 C.3       1 <0>         0.2612
      7 H1          0.5163   -4.5799    0.1941 H         1 <0>         0.1220
      8 N1         -1.5445   -4.8466    0.0442 N.pl3     1 <0>        -0.3651
      9 C7         -2.5078   -4.0439   -0.5179 C.cat     1 <0>         0.6085
     10 N2         -2.4065   -2.7213   -0.4873 N.pl3     1 <0>        -0.5507
     11 N3         -3.4470   -4.8474   -1.0342 N.2       1 <0>        -0.5138
     12 C8         -3.1315   -6.1145   -0.8300 C.2       1 <0>         0.3715
     13 N4         -1.9430   -6.1709   -0.1551 N.pl3     1 <0>        -0.4036
     14 S1         -4.0861   -7.5040   -1.3427 S.3       1 <0>         0.1255
     15 C9         -5.5220   -6.7681   -2.1717 C.3       1 <0>        -0.0683
     16 C10        -6.4325   -7.8628   -2.6654 C.ar      1 <0>        -0.1075
     17 C11        -6.2563   -8.3900   -3.9311 C.ar      1 <0>        -0.0915
     18 C12        -7.0915   -9.3941   -4.3840 C.ar      1 <0>        -0.1177
     19 C13        -8.1026   -9.8713   -3.5711 C.ar      1 <0>        -0.0924
     20 C14        -8.2783   -9.3446   -2.3051 C.ar      1 <0>        -0.1176
     21 C15        -7.4404   -8.3435   -1.8506 C.ar      1 <0>        -0.0914
     22 C16        -0.3455   -4.6752    2.1243 C.ar      1 <0>        -0.1895
     23 C17        -1.5017   -4.6697    2.8826 C.ar      1 <0>        -0.0613
     24 C18        -1.4679   -5.0876    4.1989 C.ar      1 <0>        -0.1526
     25 C19        -0.2726   -5.5134    4.7597 C.ar      1 <0>         0.1603
     26 C20         0.8860   -5.5185    3.9967 C.ar      1 <0>        -0.2063
     27 C21         0.8459   -5.1045    2.6793 C.ar      1 <0>        -0.0166
     28 O1         -0.2366   -5.9246    6.0545 O.3       1 <0>        -0.3100
     29 C22         1.0285   -6.3495    6.5654 C.3       1 <0>         0.0221
     30 C23         0.6987   -2.0199    1.2548 C.2       1 <0>         0.4156
     31 O2          1.6007   -2.6438    1.7818 O.2       1 <0>        -0.4448
     32 C24         0.7426   -0.5135    1.2423 C.3       1 <0>        -0.1557
     33 C25         0.7135   -0.4996   -1.2586 C.3       1 <0>        -0.1574
     34 H2          1.0039    1.9031    0.0027 H         1 <0>         0.0726
     35 H3         -0.5459    1.8868   -0.8726 H         1 <0>         0.0680
     36 H4         -0.5289    1.8773    0.9072 H         1 <0>         0.0666
     37 H5         -1.9461   -0.1568    0.9091 H         1 <0>         0.1237
     38 H6         -1.9578   -0.2038   -0.8701 H         1 <0>         0.1104
     39 H7         -6.0629   -6.1353   -1.4681 H         1 <0>         0.1221
     40 H8         -5.1853   -6.1670   -3.0163 H         1 <0>         0.1222
     41 H9         -5.4663   -8.0173   -4.5662 H         1 <0>         0.1294
     42 H10        -6.9542   -9.8056   -5.3730 H         1 <0>         0.1325
     43 H11        -8.7556  -10.6552   -3.9252 H         1 <0>         0.1319
     44 H12        -9.0685   -9.7171   -1.6701 H         1 <0>         0.1325
     45 H13        -7.5753   -7.9346   -0.8601 H         1 <0>         0.1293
     46 H14        -2.4320   -4.3381    2.4455 H         1 <0>         0.1121
     47 H15        -2.3711   -5.0824    4.7909 H         1 <0>         0.1385
     48 H16         1.8178   -5.8495    4.4310 H         1 <0>         0.1403
     49 H17         1.7467   -5.1124    2.0836 H         1 <0>         0.1366
     50 H18         0.9171   -6.6508    7.6070 H         1 <0>         0.1094
     51 H19         1.3917   -7.1940    5.9798 H         1 <0>         0.0607
     52 H20         1.7416   -5.5279    6.4991 H         1 <0>         0.0622
     53 H21         1.7796   -0.1794    1.2109 H         1 <0>         0.1124
     54 H22         0.2601   -0.1264    2.1398 H         1 <0>         0.1119
     55 H23         1.7363   -0.1230   -1.2704 H         1 <0>         0.0739
     56 H24         0.7275   -1.5895   -1.2633 H         1 <0>         0.0519
     57 H25         0.1835   -0.1393   -2.1403 H         1 <0>         0.0683
     58 H26        -3.1186   -2.2090   -0.9015 H         1 <0>         0.4521
     59 H27        -1.4715   -6.9699    0.1282 H         1 <0>         0.4813
@<TRIPOS>BOND
     1    1    2 1
     2    1   34 1
     3    1   35 1
     4    1   36 1
     5    2   32 1
     6    2    3 1
     7    2   33 1
     8    3    4 1
     9    3   37 1
    10    3   38 1
    11    4   10 1
    12    4    5 2
    13    5    6 1
    14    5   30 1
    15    6    7 1
    16    6    8 1
    17    6   22 1
    18    8   13 1
    19    8    9 1
    20    9   10 2
    21    9   11 1
    22   10   58 1
    23   11   12 2
    24   12   13 1
    25   12   14 1
    26   13   59 1
    27   14   15 1
    28   15   16 1
    29   15   39 1
    30   15   40 1
    31   16   21 ar
    32   16   17 ar
    33   17   18 ar
    34   17   41 1
    35   18   19 ar
    36   18   42 1
    37   19   20 ar
    38   19   43 1
    39   20   21 ar
    40   20   44 1
    41   21   45 1
    42   22   27 ar
    43   22   23 ar
    44   23   24 ar
    45   23   46 1
    46   24   25 ar
    47   24   47 1
    48   25   26 ar
    49   25   28 1
    50   26   27 ar
    51   26   48 1
    52   27   49 1
    53   28   29 1
    54   29   50 1
    55   29   51 1
    56   29   52 1
    57   30   31 2
    58   30   32 1
    59   32   53 1
    60   32   54 1
    61   33   55 1
    62   33   56 1
    63   33   57 1
@<TRIPOS>MOLECULE
ZINC41515205
   64    67     0     0     0
SMALL
USER_CHARGES

@<TRIPOS>ATOM
      1 C1         -1.7887    1.4150    0.3279 C.3       1 <0>        -0.1406
      2 C2         -1.4549   -0.0517    0.2366 C.ar      1 <0>         0.0787
      3 C3         -1.5877   -0.7111   -0.9528 C.ar      1 <0>        -0.1831
      4 C4         -1.2804   -2.0660   -1.0393 C.ar      1 <0>         0.2065
      5 C5         -0.8377   -2.7610    0.0747 C.ar      1 <0>        -0.2170
      6 C6         -0.6967   -2.1055    1.2915 C.ar      1 <0>         0.1850
      7 C7         -1.0043   -0.7372    1.3650 C.ar      1 <0>        -0.2666
      8 C8         -0.7528   -0.3293    2.7592 C.2       1 <0>         0.4078
      9 O1         -0.8985    0.7766    3.2507 O.2       1 <0>        -0.3867
     10 C9         -0.2875   -1.5549    3.4238 C.2       1 <0>        -0.0727
     11 C10         0.0696   -1.6738    4.7285 C.2       1 <0>         0.0438
     12 C11         0.1722   -0.4782    5.5730 C.ar      1 <0>        -0.0933
     13 C12         0.7621    0.6889    5.0726 C.ar      1 <0>        -0.0556
     14 C13         0.8542    1.8104    5.8744 C.ar      1 <0>         0.0919
     15 C14         0.3633    1.7829    7.1748 C.ar      1 <0>        -0.1370
     16 C15        -0.2204    0.6364    7.6776 C.ar      1 <0>        -0.1747
     17 C16        -0.3261   -0.4959    6.8862 C.ar      1 <0>         0.1319
     18 O2         -0.9052   -1.6203    7.3798 O.3       1 <0>        -0.3138
     19 C17        -1.3891   -1.5646    8.7232 C.3       1 <0>         0.0240
     20 O3          1.4272    2.9445    5.3902 O.3       1 <0>        -0.3146
     21 C18         1.4900    4.0671    6.2721 C.3       1 <0>         0.0251
     22 O4         -0.2921   -2.5469    2.5022 O.3       1 <0>        -0.2121
     23 C19        -0.5096   -4.2278   -0.0335 C.3       1 <0>         0.0511
     24 N1          0.9061   -4.3879   -0.3914 N.4       1 <0>        -0.3823
     25 C20         1.1371   -3.8300   -1.7292 C.3       1 <0>        -0.0140
     26 C21         2.6252   -3.9208   -2.0739 C.3       1 <0>        -0.1114
     27 H1          2.7944   -3.5077   -3.0683 H         1 <0>         0.1204
     28 C22         3.0607   -5.3887   -2.0490 C.3       1 <0>        -0.1286
     29 C23         2.7467   -5.9809   -0.6721 C.3       1 <0>        -0.1128
     30 H2          3.3275   -5.4600    0.0891 H         1 <0>         0.0950
     31 C24         1.2541   -5.8138   -0.3794 C.3       1 <0>        -0.0062
     32 C25         3.1071   -7.4678   -0.6612 C.3       1 <0>        -0.1508
     33 C26         3.4368   -3.1287   -1.0468 C.3       1 <0>        -0.1715
     34 O5         -1.4160   -2.7122   -2.2253 O.3       1 <0>        -0.4838
     35 H3         -0.8992    2.0046    0.1059 H         1 <0>         0.0944
     36 H4         -2.5723    1.6547   -0.3910 H         1 <0>         0.0858
     37 H5         -2.1362    1.6466    1.3347 H         1 <0>         0.0897
     38 H6         -1.9322   -0.1799   -1.8277 H         1 <0>         0.1568
     39 H7          0.2782   -2.6483    5.1447 H         1 <0>         0.1561
     40 H8          1.1445    0.7124    4.0628 H         1 <0>         0.1340
     41 H9          0.4390    2.6632    7.7958 H         1 <0>         0.1383
     42 H10        -0.5992    0.6238    8.6889 H         1 <0>         0.1404
     43 H11        -1.8268   -2.5260    8.9919 H         1 <0>         0.1059
     44 H12        -0.5630   -1.3402    9.3980 H         1 <0>         0.0607
     45 H13        -2.1467   -0.7851    8.8045 H         1 <0>         0.0598
     46 H14         0.4809    4.3527    6.5692 H         1 <0>         0.0571
     47 H15         2.0680    3.8019    7.1574 H         1 <0>         0.0571
     48 H16         1.9690    4.9032    5.7625 H         1 <0>         0.1041
     49 H17        -0.6997   -4.7142    0.9233 H         1 <0>         0.1410
     50 H18        -1.1326   -4.6837   -0.8029 H         1 <0>         0.1473
     51 H19         0.5599   -4.3937   -2.4621 H         1 <0>         0.1365
     52 H20         0.8237   -2.7862   -1.7462 H         1 <0>         0.1173
     53 H21         2.5194   -5.9426   -2.8161 H         1 <0>         0.0848
     54 H22         4.1322   -5.4543   -2.2383 H         1 <0>         0.0958
     55 H23         1.0271   -6.2345    0.6002 H         1 <0>         0.1319
     56 H24         0.6744   -6.3352   -1.1410 H         1 <0>         0.1319
     57 H25         4.1698   -7.5857   -0.8732 H         1 <0>         0.0773
     58 H26         2.8834   -7.8887    0.3191 H         1 <0>         0.0686
     59 H27         2.5249   -7.9884   -1.4215 H         1 <0>         0.0678
     60 H28         3.2684   -3.5432   -0.0529 H         1 <0>         0.0516
     61 H29         4.4967   -3.1937   -1.2929 H         1 <0>         0.0865
     62 H30         3.1234   -2.0848   -1.0630 H         1 <0>         0.0715
     63 H31        -0.6204   -2.6970   -2.7748 H         1 <0>         0.3972
     64 H32         1.4790   -3.8973    0.2789 H         1 <0>         0.4205
@<TRIPOS>BOND
     1    1    2 1
     2    1   35 1
     3    1   36 1
     4    1   37 1
     5    2    7 ar
     6    2    3 ar
     7    3    4 ar
     8    3   38 1
     9    4    5 ar
    10    4   34 1
    11    5    6 ar
    12    5   23 1
    13    6   22 1
    14    6    7 ar
    15    7    8 1
    16    8    9 2
    17    8   10 1
    18   10   11 2
    19   10   22 1
    20   11   12 1
    21   11   39 1
    22   12   17 ar
    23   12   13 ar
    24   13   14 ar
    25   13   40 1
    26   14   15 ar
    27   14   20 1
    28   15   16 ar
    29   15   41 1
    30   16   17 ar
    31   16   42 1
    32   17   18 1
    33   18   19 1
    34   19   43 1
    35   19   44 1
    36   19   45 1
    37   20   21 1
    38   21   46 1
    39   21   47 1
    40   21   48 1
    41   23   24 1
    42   23   49 1
    43   23   50 1
    44   24   31 1
    45   24   25 1
    46   24   64 1
    47   25   26 1
    48   25   51 1
    49   25   52 1
    50   26   27 1
    51   26   28 1
    52   26   33 1
    53   28   29 1
    54   28   53 1
    55   28   54 1
    56   29   30 1
    57   29   31 1
    58   29   32 1
    59   31   55 1
    60   31   56 1
    61   32   57 1
    62   32   58 1
    63   32   59 1
    64   33   60 1
    65   33   61 1
    66   33   62 1
    67   34   63 1
@<TRIPOS>MOLECULE
ZINC38966614
   44    47     0     0     0
SMALL
USER_CHARGES

@<TRIPOS>ATOM
      1 C1          0.5728    1.4301   -0.7019 C.ar      1 <0>         0.0552
      2 C2          1.7927    2.1081   -0.5415 C.ar      1 <0>        -0.0623
      3 C3          2.9601    1.4676   -0.3141 C.ar      1 <0>        -0.0843
      4 C4          2.9964    0.0527   -0.2271 C.ar      1 <0>         0.2898
      5 N1          4.1368   -0.5664   -0.0048 N.2       1 <0>        -0.4547
      6 C5          4.2063   -1.9043    0.0831 C.2       1 <0>         0.4421
      7 N2          5.3448   -2.4927    0.3037 N.2       1 <0>        -0.8276
      8 S1          6.7227   -1.5911    0.4784 S.o2      1 <0>         2.6304
      9 O1          6.9699   -0.9792   -0.7801 O.2       1 <0>        -0.9282
     10 O2          6.5670   -0.8387    1.6738 O.2       1 <0>        -0.9281
     11 C6          8.0492   -2.7161    0.7606 C.ar      1 <0>        -0.6735
     12 C7          8.3717   -3.0940    2.0506 C.ar      1 <0>         0.0146
     13 C8          9.4115   -3.9766    2.2732 C.ar      1 <0>        -0.1709
     14 C9         10.1304   -4.4825    1.2034 C.ar      1 <0>         0.1746
     15 C10         9.8065   -4.1033   -0.0883 C.ar      1 <0>        -0.1706
     16 C11         8.7628   -3.2246   -0.3087 C.ar      1 <0>         0.0146
     17 F1         11.1474   -5.3451    1.4197 F         1 <0>        -0.1187
     18 C12         2.9413   -2.7166   -0.0776 C.3       1 <0>         0.3115
     19 H1          3.0936   -3.4093   -0.9053 H         1 <0>         0.1893
     20 N3          1.6855   -1.9909   -0.3248 N.pl3     1 <0>        -0.5175
     21 C13         1.7222   -0.6893   -0.3928 C.ar      1 <0>         0.3352
     22 C14         0.4950    0.0828   -0.6374 C.ar      1 <0>        -0.2038
     23 N4          2.7642   -3.5136    1.1388 N.pl3     1 <0>        -0.7139
     24 C15         2.3872   -4.8553    1.0460 C.ar      1 <0>         0.2047
     25 C16         2.0345   -5.3954   -0.1842 C.ar      1 <0>        -0.1858
     26 C17         1.6622   -6.7236   -0.2732 C.ar      1 <0>         0.0228
     27 C18         1.6408   -7.5151    0.8617 C.ar      1 <0>        -0.1281
     28 C19         1.9913   -6.9795    2.0886 C.ar      1 <0>         0.0234
     29 C20         2.3698   -5.6534    2.1826 C.ar      1 <0>        -0.1489
     30 Cl1         1.9618   -7.9758    3.5100 Cl        1 <0>        -0.0285
     31 Cl2         1.2207   -7.3992   -1.8102 Cl        1 <0>        -0.0332
     32 H2         -0.3271    2.0010   -0.8770 H         1 <0>         0.1824
     33 H3          1.7974    3.1863   -0.6029 H         1 <0>         0.1788
     34 H4          3.8709    2.0363   -0.1982 H         1 <0>         0.1892
     35 H5          7.8110   -2.6990    2.8850 H         1 <0>         0.1523
     36 H6          9.6636   -4.2714    3.2811 H         1 <0>         0.1551
     37 H7         10.3667   -4.4970   -0.9234 H         1 <0>         0.1554
     38 H8          8.5071   -2.9321   -1.3164 H         1 <0>         0.1531
     39 H9         -0.4531   -0.4189   -0.7632 H         1 <0>         0.1862
     40 H10         2.9087   -3.1096    2.0087 H         1 <0>         0.4238
     41 H11         2.0507   -4.7780   -1.0702 H         1 <0>         0.1332
     42 H12         1.3496   -8.5526    0.7898 H         1 <0>         0.1544
     43 H13         2.6478   -5.2372    3.1396 H         1 <0>         0.1487
     44 H14         0.8492   -2.4699   -0.4347 H         1 <0>         0.4578
@<TRIPOS>BOND
     1    1   22 ar
     2    1    2 ar
     3    1   32 1
     4    2    3 ar
     5    2   33 1
     6    3    4 ar
     7    3   34 1
     8    4   21 ar
     9    4    5 2
    10    5    6 1
    11    6    7 2
    12    6   18 1
    13    7    8 1
    14    8    9 2
    15    8   10 2
    16    8   11 1
    17   11   16 ar
    18   11   12 ar
    19   12   13 ar
    20   12   35 1
    21   13   14 ar
    22   13   36 1
    23   14   15 ar
    24   14   17 1
    25   15   16 ar
    26   15   37 1
    27   16   38 1
    28   18   19 1
    29   18   20 1
    30   18   23 1
    31   20   21 2
    32   20   44 1
    33   21   22 ar
    34   22   39 1
    35   23   24 1
    36   23   40 1
    37   24   29 ar
    38   24   25 ar
    39   25   26 ar
    40   25   41 1
    41   26   27 ar
    42   26   31 1
    43   27   28 ar
    44   27   42 1
    45   28   29 ar
    46   28   30 1
    47   29   43 1
@<TRIPOS>MOLECULE
ZINC00681746
   60    64     0     0     0
SMALL
USER_CHARGES
(3-nitrophenyl)-phenyl-propanoyl-BLAHone
@<TRIPOS>ATOM
      1 C1          7.3213   -0.8103    3.5492 C.3       1 <0>        -0.1385
      2 C2          6.1761    0.1826    3.7581 C.3       1 <0>        -0.1411
      3 C3          4.8821   -0.4395    3.3001 C.2       1 <0>         0.5190
      4 O1          4.8764   -1.5661    2.8508 O.2       1 <0>        -0.5194
      5 N1          3.7312    0.2561    3.3898 N.am      1 <0>        -0.5536
      6 C4          3.7492    1.5520    3.9079 C.ar      1 <0>         0.1295
      7 C5          4.0950    1.8008    5.2263 C.ar      1 <0>        -0.1075
      8 C6          4.0521    3.0977    5.7072 C.ar      1 <0>        -0.1038
      9 C7          3.6644    4.1381    4.8823 C.ar      1 <0>        -0.1036
     10 C8          3.3355    3.8952    3.5596 C.ar      1 <0>        -0.1126
     11 C9          3.4003    2.6014    3.0716 C.ar      1 <0>         0.1354
     12 N2          3.1971    2.3030    1.7301 N.pl3     1 <0>        -0.6907
     13 C10         2.1993    1.5195    1.2495 C.2       1 <0>         0.2520
     14 C11         1.8522    0.3251    1.7599 C.2       1 <0>        -0.2773
     15 C12         2.4942   -0.3513    2.9469 C.3       1 <0>         0.2441
     16 H1          2.6968   -1.3897    2.6846 H         1 <0>         0.1219
     17 C13         1.5162   -0.3326    4.0933 C.ar      1 <0>        -0.0929
     18 C14         1.0212   -1.5202    4.5989 C.ar      1 <0>        -0.0836
     19 C15         0.1278   -1.5033    5.6536 C.ar      1 <0>        -0.1223
     20 C16        -0.2786   -0.2984    6.1959 C.ar      1 <0>        -0.1144
     21 C17         0.2124    0.8893    5.6869 C.ar      1 <0>        -0.1239
     22 C18         1.1098    0.8722    4.6356 C.ar      1 <0>        -0.1059
     23 C19         0.7951   -0.4162    1.1808 C.2       1 <0>         0.3991
     24 O2          0.5136   -1.5011    1.6507 O.2       1 <0>        -0.4558
     25 C20         0.0103    0.0895    0.0076 C.3       1 <0>        -0.1492
     26 C21         0.0183    1.6225    0.0405 C.3       1 <0>        -0.0371
     27 H2         -0.4776    1.9752    0.9448 H         1 <0>         0.0988
     28 C22         1.4756    2.0802    0.0372 C.3       1 <0>        -0.1032
     29 C23        -0.6895    2.1631   -1.1752 C.ar      1 <0>        -0.0771
     30 C24        -0.2181    1.8635   -2.4399 C.ar      1 <0>        -0.0630
     31 C25        -0.8701    2.3553   -3.5549 C.ar      1 <0>        -0.1109
     32 C26        -1.9875    3.1555   -3.4054 C.ar      1 <0>        -0.0546
     33 C27        -2.4557    3.4594   -2.1410 C.ar      1 <0>        -0.0395
     34 C28        -1.8066    2.9631   -1.0257 C.ar      1 <0>        -0.0479
     35 N3         -3.6518    4.3166   -1.9809 N.pl3     1 <0>         0.0253
     36 O3         -4.0642    4.5847   -0.8666 O.2       1 <0>        -0.1560
     37 O4         -4.2237    4.7538   -2.9634 O.3       1 <0>        -0.1550
     38 H3          8.2572   -0.3604    3.8804 H         1 <0>         0.0642
     39 H4          7.1283   -1.7143    4.1267 H         1 <0>         0.0630
     40 H5          7.3942   -1.0635    2.4915 H         1 <0>         0.0617
     41 H6          6.3691    1.0866    3.1805 H         1 <0>         0.0925
     42 H7          6.1032    0.4358    4.8157 H         1 <0>         0.0957
     43 H8          4.3951    0.9896    5.8731 H         1 <0>         0.1309
     44 H9          4.3227    3.2988    6.7333 H         1 <0>         0.1330
     45 H10         3.6184    5.1445    5.2716 H         1 <0>         0.1336
     46 H11         3.0318    4.7068    2.9151 H         1 <0>         0.1344
     47 H12         3.8158    2.6846    1.0877 H         1 <0>         0.4098
     48 H13         1.3353   -2.4613    4.1723 H         1 <0>         0.1227
     49 H14        -0.2561   -2.4312    6.0510 H         1 <0>         0.1225
     50 H15        -0.9800   -0.2851    7.0171 H         1 <0>         0.1210
     51 H16        -0.1054    1.8306    6.1104 H         1 <0>         0.1194
     52 H17         1.4932    1.8002    4.2377 H         1 <0>         0.1163
     53 H18        -0.9289   -0.2493    0.0638 H         1 <0>         0.0913
     54 H19         0.4661   -0.2592   -0.9192 H         1 <0>         0.1050
     55 H20         1.9638    1.7267   -0.8710 H         1 <0>         0.0973
     56 H21         1.5128    3.1692    0.0655 H         1 <0>         0.0957
     57 H22         0.6574    1.2419   -2.5566 H         1 <0>         0.1444
     58 H23        -0.5040    2.1181   -4.5429 H         1 <0>         0.1510
     59 H24        -2.4944    3.5435   -4.2766 H         1 <0>         0.1554
     60 H25        -2.1723    3.2009   -0.0377 H         1 <0>         0.1544
@<TRIPOS>BOND
     1    1    2 1
     2    1   38 1
     3    1   39 1
     4    1   40 1
     5    2    3 1
     6    2   41 1
     7    2   42 1
     8    3    4 2
     9    3    5 am
    10    5   15 1
    11    5    6 1
    12    6   11 ar
    13    6    7 ar
    14    7    8 ar
    15    7   43 1
    16    8    9 ar
    17    8   44 1
    18    9   10 ar
    19    9   45 1
    20   10   11 ar
    21   10   46 1
    22   11   12 1
    23   12   13 1
    24   12   47 1
    25   13   28 1
    26   13   14 2
    27   14   15 1
    28   14   23 1
    29   15   16 1
    30   15   17 1
    31   17   22 ar
    32   17   18 ar
    33   18   19 ar
    34   18   48 1
    35   19   20 ar
    36   19   49 1
    37   20   21 ar
    38   20   50 1
    39   21   22 ar
    40   21   51 1
    41   22   52 1
    42   23   24 2
    43   23   25 1
    44   25   26 1
    45   25   53 1
    46   25   54 1
    47   26   27 1
    48   26   28 1
    49   26   29 1
    50   28   55 1
    51   28   56 1
    52   29   34 ar
    53   29   30 ar
    54   30   31 ar
    55   30   57 1
    56   31   32 ar
    57   31   58 1
    58   32   33 ar
    59   32   59 1
    60   33   34 ar
    61   33   35 1
    62   34   60 1
    63   35   36 2
    64   35   37 1
@<TRIPOS>MOLECULE
ZINC12371456
   56    60     0     0     0
SMALL
USER_CHARGES
1-[(1S)-6-methoxy-1-(4-nitrophenyl)-1,3,4,9-tetrahydropyrido[3,4-b]indol-2-yl]-2-phenyl-ethanone
@<TRIPOS>ATOM
      1 C1         -5.6566    0.4393    7.8000 C.3       1 <0>         0.0270
      2 O1         -5.8627    1.0934    6.5463 O.3       1 <0>        -0.3202
      3 C2         -4.9954    0.7926    5.5430 C.ar      1 <0>         0.1008
      4 C3         -3.9729   -0.1172    5.7837 C.ar      1 <0>        -0.1773
      5 C4         -3.0552   -0.4699    4.8104 C.ar      1 <0>        -0.0890
      6 C5         -3.1937    0.1284    3.5599 C.ar      1 <0>         0.0753
      7 C6         -4.2358    1.0574    3.3118 C.ar      1 <0>        -0.0634
      8 C7         -5.1552    1.4026    4.3076 C.ar      1 <0>        -0.1041
      9 C8         -4.0825    1.4739    1.9323 C.2       1 <0>        -0.1532
     10 C9         -3.0117    0.8155    1.4379 C.2       1 <0>         0.0645
     11 N1         -2.4745    0.0067    2.4033 N.pl3     1 <0>        -0.5763
     12 H1         -1.7011   -0.5665    2.2845 H         1 <0>         0.4170
     13 C10        -2.5137    0.9795    0.0193 C.3       1 <0>         0.2483
     14 H2         -2.3619    0.0005   -0.4352 H         1 <0>         0.1248
     15 N2         -3.5412    1.7253   -0.7274 N.am      1 <0>        -0.6043
     16 C11        -4.1521    2.9006   -0.0891 C.3       1 <0>         0.0937
     17 C12        -4.9301    2.4455    1.1515 C.3       1 <0>        -0.0640
     18 C13        -3.9126    1.3399   -1.9643 C.2       1 <0>         0.5260
     19 O2         -3.3991    0.3678   -2.4764 O.2       1 <0>        -0.5191
     20 C14        -4.9659    2.1170   -2.7111 C.3       1 <0>        -0.0985
     21 C15        -5.1957    1.4840   -4.0593 C.ar      1 <0>        -0.0729
     22 C16        -4.4550    1.8957   -5.1514 C.ar      1 <0>        -0.1047
     23 C17        -4.6631    1.3123   -6.3873 C.ar      1 <0>        -0.1184
     24 C18        -5.6179    0.3233   -6.5328 C.ar      1 <0>        -0.1170
     25 C19        -6.3620   -0.0850   -5.4416 C.ar      1 <0>        -0.1183
     26 C20        -6.1512    0.4957   -4.2050 C.ar      1 <0>        -0.1040
     27 C21        -1.2190    1.7506    0.0173 C.ar      1 <0>        -0.0511
     28 C22        -0.0990    1.2193   -0.5943 C.ar      1 <0>        -0.0986
     29 C23         1.0872    1.9292   -0.6011 C.ar      1 <0>        -0.0524
     30 C24         1.1548    3.1679    0.0089 C.ar      1 <0>        -0.0373
     31 C25         0.0361    3.6971    0.6247 C.ar      1 <0>        -0.0537
     32 C26        -1.1503    2.9876    0.6307 C.ar      1 <0>        -0.1004
     33 N3          2.4251    3.9278    0.0021 N.pl3     1 <0>         0.0250
     34 O3          3.4107    3.4617   -0.5410 O.2       1 <0>        -0.1552
     35 O4          2.4847    5.0192    0.5395 O.3       1 <0>        -0.1545
     36 H3         -6.4153    0.7678    8.5103 H         1 <0>         0.0999
     37 H4         -5.7297   -0.6396    7.6632 H         1 <0>         0.0543
     38 H5         -4.6675    0.6908    8.1827 H         1 <0>         0.0544
     39 H6         -3.8917   -0.5637    6.7637 H         1 <0>         0.1304
     40 H7         -2.2656   -1.1788    5.0113 H         1 <0>         0.1328
     41 H8         -5.9505    2.1098    4.1237 H         1 <0>         0.1391
     42 H9         -4.8328    3.3840   -0.7898 H         1 <0>         0.1008
     43 H10        -3.3728    3.6032    0.2063 H         1 <0>         0.0825
     44 H11        -5.8548    1.9574    0.8435 H         1 <0>         0.0817
     45 H12        -5.1618    3.3097    1.7741 H         1 <0>         0.0915
     46 H13        -5.8957    2.1081   -2.1423 H         1 <0>         0.1080
     47 H14        -4.6318    3.1459   -2.8450 H         1 <0>         0.1065
     48 H15        -3.7116    2.6709   -5.0386 H         1 <0>         0.1186
     49 H16        -4.0820    1.6315   -7.2398 H         1 <0>         0.1226
     50 H17        -5.7828   -0.1301   -7.4990 H         1 <0>         0.1222
     51 H18        -7.1082   -0.8574   -5.5554 H         1 <0>         0.1228
     52 H19        -6.7327    0.1770   -3.3526 H         1 <0>         0.1195
     53 H20        -0.1518    0.2516   -1.0708 H         1 <0>         0.1511
     54 H21         1.9611    1.5159   -1.0826 H         1 <0>         0.1577
     55 H22         0.0889    4.6650    1.1010 H         1 <0>         0.1570
     56 H23        -2.0244    3.4012    1.1116 H         1 <0>         0.1523
@<TRIPOS>BOND
     1    1    2 1
     2    1   36 1
     3    1   37 1
     4    1   38 1
     5    2    3 1
     6    3    8 ar
     7    3    4 ar
     8    4    5 ar
     9    4   39 1
    10    5    6 ar
    11    5   40 1
    12    6   11 1
    13    6    7 ar
    14    7    8 ar
    15    7    9 1
    16    8   41 1
    17    9   17 1
    18    9   10 2
    19   10   11 1
    20   10   13 1
    21   11   12 1
    22   13   14 1
    23   13   15 1
    24   13   27 1
    25   15   16 1
    26   15   18 am
    27   16   17 1
    28   16   42 1
    29   16   43 1
    30   17   44 1
    31   17   45 1
    32   18   19 2
    33   18   20 1
    34   20   21 1
    35   20   46 1
    36   20   47 1
    37   21   26 ar
    38   21   22 ar
    39   22   23 ar
    40   22   48 1
    41   23   24 ar
    42   23   49 1
    43   24   25 ar
    44   24   50 1
    45   25   26 ar
    46   25   51 1
    47   26   52 1
    48   27   32 ar
    49   27   28 ar
    50   28   29 ar
    51   28   53 1
    52   29   30 ar
    53   29   54 1
    54   30   31 ar
    55   30   33 1
    56   31   32 ar
    57   31   55 1
    58   32   56 1
    59   33   34 2
    60   33   35 1
@<TRIPOS>MOLECULE
ZINC13661544
   56    59     0     0     0
SMALL
USER_CHARGES
N-(3,4-dimethylphenyl)-N-[(2-hydroxy-6-methyl-3-quinolyl)methyl]-3-nitro-benzamide
@<TRIPOS>ATOM
      1 C1          5.0689   11.0796    5.1461 C.3       1 <0>        -0.1191
      2 C2          3.8294   10.3380    4.7163 C.ar      1 <0>        -0.1109
      3 C3          2.8147   10.1009    5.6409 C.ar      1 <0>        -0.0512
      4 C4          1.6822    9.4350    5.2848 C.ar      1 <0>        -0.1591
      5 C5          1.5285    8.9760    3.9652 C.ar      1 <0>         0.1815
      6 C6          2.5614    9.2182    3.0269 C.ar      1 <0>        -0.1327
      7 C7          3.7156    9.9087    3.4289 C.ar      1 <0>        -0.0541
      8 C8          2.4097    8.7531    1.7054 C.2       1 <0>         0.0143
      9 C9          1.2613    8.0936    1.3812 C.2       1 <0>        -0.1935
     10 C10         0.2774    7.8856    2.3552 C.2       1 <0>         0.4794
     11 N1          0.4265    8.3179    3.5887 N.am      1 <0>        -0.5665
     12 O1         -0.8566    7.2232    2.0189 O.2       1 <0>        -0.6049
     13 C11         1.0542    7.5839   -0.0217 C.3       1 <0>         0.1371
     14 N2          1.2701    6.1352   -0.0518 N.am      1 <0>        -0.5358
     15 C12         2.5693    5.6233   -0.1280 C.ar      1 <0>         0.1493
     16 C13         3.6458    6.4815   -0.3132 C.ar      1 <0>        -0.1634
     17 C14         4.9280    5.9734   -0.3817 C.ar      1 <0>        -0.0933
     18 C15         5.1399    4.6106   -0.2780 C.ar      1 <0>        -0.1093
     19 C16         4.0700    3.7531   -0.0998 C.ar      1 <0>        -0.0611
     20 C17         2.7855    4.2555   -0.0242 C.ar      1 <0>        -0.1629
     21 C18         4.3055    2.2689    0.0126 C.3       1 <0>        -0.1173
     22 C19         6.5400    4.0591   -0.3590 C.3       1 <0>        -0.1189
     23 C20         0.2167    5.2958   -0.0062 C.2       1 <0>         0.5754
     24 O2          0.3982    4.0954    0.0553 O.2       1 <0>        -0.5004
     25 C21        -1.1595    5.8348   -0.0308 C.ar      1 <0>        -0.0814
     26 C22        -1.4956    6.8587   -0.9183 C.ar      1 <0>        -0.0522
     27 C23        -2.7815    7.3575   -0.9358 C.ar      1 <0>        -0.1188
     28 C24        -3.7373    6.8455   -0.0759 C.ar      1 <0>        -0.0378
     29 C25        -3.4094    5.8348    0.8099 C.ar      1 <0>        -0.0382
     30 C26        -2.1284    5.3226    0.8335 C.ar      1 <0>         0.0339
     31 N3         -4.4364    5.2978    1.7306 N.pl3     1 <0>         0.0310
     32 O3         -5.5689    5.7457    1.7077 O.2       1 <0>        -0.1615
     33 O4         -4.1492    4.4079    2.5111 O.3       1 <0>        -0.1590
     34 H1          4.9861   11.3464    6.2101 H         1 <0>         0.0693
     35 H2          5.1751   11.9952    4.5457 H         1 <0>         0.0736
     36 H3          5.9502   10.4386    4.9962 H         1 <0>         0.0735
     37 H4          2.9283   10.4512    6.6561 H         1 <0>         0.1360
     38 H5          0.9048    9.2596    6.0136 H         1 <0>         0.1393
     39 H6          4.5088   10.0988    2.7210 H         1 <0>         0.1387
     40 H7          3.1811    8.9181    0.9678 H         1 <0>         0.1491
     41 H8          0.0272    7.8084   -0.3455 H         1 <0>         0.1248
     42 H9          1.7679    8.0751   -0.6994 H         1 <0>         0.1022
     43 H10         3.4806    7.5453   -0.3987 H         1 <0>         0.1208
     44 H11         5.7658    6.6404   -0.5212 H         1 <0>         0.1248
     45 H12         1.9502    3.5852    0.1150 H         1 <0>         0.1819
     46 H13         3.3430    1.7543    0.1496 H         1 <0>         0.0681
     47 H14         4.9563    2.0653    0.8757 H         1 <0>         0.0708
     48 H15         4.7891    1.9038   -0.9055 H         1 <0>         0.0716
     49 H16         6.5093    2.9643   -0.2569 H         1 <0>         0.0691
     50 H17         7.1496    4.4860    0.4510 H         1 <0>         0.0670
     51 H18         6.9830    4.3245   -1.3302 H         1 <0>         0.0678
     52 H19        -0.7504    7.2596   -1.5893 H         1 <0>         0.1456
     53 H20        -3.0429    8.1496   -1.6218 H         1 <0>         0.1505
     54 H21        -4.7426    7.2399   -0.0934 H         1 <0>         0.1533
     55 H22        -1.8747    4.5308    1.5227 H         1 <0>         0.1507
     56 H23        -0.3768    8.1290    4.3161 H         1 <0>         0.4530
@<TRIPOS>BOND
     1    1    2 1
     2    1   34 1
     3    1   35 1
     4    1   36 1
     5    2    7 ar
     6    2    3 ar
     7    3    4 ar
     8    3   37 1
     9    4    5 ar
    10    4   38 1
    11    5   11 1
    12    5    6 ar
    13    6    7 ar
    14    6    8 1
    15    7   39 1
    16    8    9 2
    17    8   40 1
    18    9   10 1
    19    9   13 1
    20   10   11 am
    21   10   12 2
    22   11   56 1
    23   13   14 1
    24   13   41 1
    25   13   42 1
    26   14   15 1
    27   14   23 am
    28   15   20 ar
    29   15   16 ar
    30   16   17 ar
    31   16   43 1
    32   17   18 ar
    33   17   44 1
    34   18   19 ar
    35   18   22 1
    36   19   20 ar
    37   19   21 1
    38   20   45 1
    39   21   46 1
    40   21   47 1
    41   21   48 1
    42   22   49 1
    43   22   50 1
    44   22   51 1
    45   23   24 2
    46   23   25 1
    47   25   30 ar
    48   25   26 ar
    49   26   27 ar
    50   26   52 1
    51   27   28 ar
    52   27   53 1
    53   28   29 ar
    54   28   54 1
    55   29   30 ar
    56   29   31 1
    57   30   55 1
    58   31   32 2
    59   31   33 1
@<TRIPOS>MOLECULE
ZINC22852536
   45    49     0     0     0
SMALL
USER_CHARGES

@<TRIPOS>ATOM
      1 C1         -0.1069    0.6856    0.0996 C.2       1 <0>        -0.2182
      2 C2          1.2018    1.2081    0.0803 C.2       1 <0>        -0.1219
      3 C3          2.0479    0.1444    0.0538 C.2       1 <0>         0.0336
      4 O1          1.3071   -0.9806    0.0565 O.3       1 <0>        -0.1606
      5 C4          0.0040   -0.6571    0.0841 C.2       1 <0>        -0.0027
      6 C5          3.5240    0.2107    0.0260 C.2       1 <0>         0.3511
      7 N1          4.2521    1.3359    0.0286 N.2       1 <0>        -0.4665
      8 C6          5.5188    1.0292   -0.0007 C.2       1 <0>         0.2441
      9 N2          5.6645   -0.3307   -0.0238 N.pl3     1 <0>        -0.3926
     10 N3          4.3345   -0.8253    0.0005 N.2       1 <0>        -0.2854
     11 C7          6.9467   -0.8224   -0.0565 C.2       1 <0>         0.3306
     12 C8          7.9964    0.0074   -0.0645 C.2       1 <0>        -0.2134
     13 S1          7.1994    1.6056   -0.0248 S.3       1 <0>         0.2365
     14 C9          9.4669   -0.3206   -0.0972 C.3       1 <0>         0.2354
     15 H1          9.5972   -1.4022   -0.1339 H         1 <0>         0.0950
     16 C10        10.1307    0.2235    1.1415 C.ar      1 <0>        -0.0780
     17 C11        10.7104    1.4783    1.1204 C.ar      1 <0>        -0.0674
     18 C12        11.3192    1.9780    2.2559 C.ar      1 <0>        -0.1065
     19 C13        11.3486    1.2226    3.4150 C.ar      1 <0>        -0.0177
     20 C14        10.7684   -0.0327    3.4369 C.ar      1 <0>        -0.1042
     21 C15        10.1548   -0.5304    2.3011 C.ar      1 <0>        -0.0141
     22 Cl1         9.4210   -2.1035    2.3293 Cl        1 <0>        -0.0465
     23 Cl2        12.1140    1.8502    4.8412 Cl        1 <0>        -0.0527
     24 N4         10.0778    0.2868   -1.2871 N.3       1 <0>        -0.5285
     25 C16         9.3067   -0.0338   -2.4971 C.3       1 <0>         0.0179
     26 C17         9.9424    0.6661   -3.7012 C.3       1 <0>         0.0653
     27 O2         11.3115    0.2672   -3.8101 O.3       1 <0>        -0.3823
     28 C18        12.0920    0.5650   -2.6493 C.3       1 <0>         0.0655
     29 C19        11.4781   -0.1359   -1.4345 C.3       1 <0>         0.0138
     30 O3          7.1515   -2.1670   -0.0806 O.3       1 <0>        -0.4387
     31 H2         -1.0249    1.2539    0.1265 H         1 <0>         0.1616
     32 H3          1.4790    2.2519    0.0852 H         1 <0>         0.1647
     33 H4         -0.8185   -1.3569    0.0926 H         1 <0>         0.2150
     34 H5         10.6877    2.0683    0.2160 H         1 <0>         0.1557
     35 H6         11.7726    2.9581    2.2387 H         1 <0>         0.1444
     36 H7         10.7911   -0.6227    4.3412 H         1 <0>         0.1462
     37 H8          9.3130   -1.1119   -2.6576 H         1 <0>         0.0496
     38 H9          8.2797    0.3108   -2.3761 H         1 <0>         0.0859
     39 H10         9.4083    0.3856   -4.6090 H         1 <0>         0.0999
     40 H11         9.8877    1.7462   -3.5650 H         1 <0>         0.0641
     41 H12        13.1125    0.2114   -2.7963 H         1 <0>         0.1014
     42 H13        12.0998    1.6422   -2.4825 H         1 <0>         0.0630
     43 H14        12.0361    0.1341   -0.5379 H         1 <0>         0.0924
     44 H15        11.5191   -1.2157   -1.5781 H         1 <0>         0.0506
     45 H16         6.3376   -2.6891   -0.0726 H         1 <0>         0.4142
@<TRIPOS>BOND
     1    1    5 2
     2    1    2 1
     3    1   31 1
     4    2    3 2
     5    2   32 1
     6    3    4 1
     7    3    6 1
     8    4    5 1
     9    5   33 1
    10    6   10 2
    11    6    7 1
    12    7    8 2
    13    8   13 1
    14    8    9 1
    15    9   10 1
    16    9   11 1
    17   11   12 2
    18   11   30 1
    19   12   13 1
    20   12   14 1
    21   14   15 1
    22   14   16 1
    23   14   24 1
    24   16   21 ar
    25   16   17 ar
    26   17   18 ar
    27   17   34 1
    28   18   19 ar
    29   18   35 1
    30   19   20 ar
    31   19   23 1
    32   20   21 ar
    33   20   36 1
    34   21   22 1
    35   24   29 1
    36   24   25 1
    37   25   26 1
    38   25   37 1
    39   25   38 1
    40   26   27 1
    41   26   39 1
    42   26   40 1
    43   27   28 1
    44   28   29 1
    45   28   41 1
    46   28   42 1
    47   29   43 1
    48   29   44 1
    49   30   45 1
@<TRIPOS>MOLECULE
ZINC45794948
   45    48     0     0     0
SMALL
USER_CHARGES

@<TRIPOS>ATOM
      1 C1         -0.0187    1.5258    0.0104 C.3       1 <0>        -0.1459
      2 C2          0.0021   -0.0041    0.0020 C.3       1 <0>         0.1711
      3 C3          0.8145   -0.5200   -1.1691 C.2       1 <0>         0.5347
      4 O1          0.5947   -0.3417   -2.3479 O.2       1 <0>        -0.4396
      5 N1          1.8325   -1.2174   -0.6272 N.am      1 <0>        -0.5758
      6 C4          1.7766   -1.2139    0.7095 C.2       1 <0>         0.7048
      7 O2          2.5860   -1.7761    1.4210 O.2       1 <0>        -0.5146
      8 N2          0.7243   -0.5191    1.1781 N.am      1 <0>        -0.7143
      9 C5          2.8713   -1.8963   -1.4058 C.3       1 <0>         0.2076
     10 C6          4.0198   -0.9501   -1.6436 C.2       1 <0>         0.2675
     11 N3          5.0585   -0.8045   -0.8713 N.2       1 <0>        -0.5017
     12 C7          5.8872    0.1228   -1.3838 C.2       1 <0>         0.2886
     13 N4          5.3702    0.5756   -2.4991 N.2       1 <0>        -0.3164
     14 O3          4.1476   -0.1211   -2.6877 O.3       1 <0>        -0.0834
     15 C8          7.1728    0.5606   -0.7850 C.ar      1 <0>        -0.0075
     16 C9          7.6166   -0.0048    0.4086 C.ar      1 <0>        -0.0639
     17 C10         8.8128    0.4061    0.9610 C.ar      1 <0>        -0.0733
     18 C11         9.5704    1.3777    0.3322 C.ar      1 <0>        -0.1576
     19 C12         9.1345    1.9423   -0.8529 C.ar      1 <0>        -0.0725
     20 C13         7.9428    1.5344   -1.4174 C.ar      1 <0>        -0.0772
     21 C14        10.8751    1.8230    0.9407 C.3       1 <0>         0.5079
     22 F1         11.9147    1.0256    0.4501 F         1 <0>        -0.1724
     23 F2         11.1143    3.1598    0.6045 F         1 <0>        -0.1738
     24 F3         10.8077    1.6970    2.3324 F         1 <0>        -0.1733
     25 C15        -1.4013   -0.5515   -0.0400 C.ar      1 <0>        -0.0969
     26 C16        -2.0043   -0.8145   -1.2558 C.ar      1 <0>        -0.0950
     27 C17        -3.2914   -1.3166   -1.2950 C.ar      1 <0>        -0.1032
     28 C18        -3.9764   -1.5561   -0.1170 C.ar      1 <0>        -0.0245
     29 C19        -3.3724   -1.2927    1.0996 C.ar      1 <0>        -0.1069
     30 C20        -2.0831   -0.7959    1.1375 C.ar      1 <0>        -0.0820
     31 Cl1        -5.5932   -2.1862   -0.1653 Cl        1 <0>        -0.0598
     32 H1          1.0039    1.9031    0.0027 H         1 <0>         0.0725
     33 H2         -0.5459    1.8868   -0.8726 H         1 <0>         0.0906
     34 H3         -0.5289    1.8773    0.9072 H         1 <0>         0.0874
     35 H4          0.4875   -0.3833    2.1089 H         1 <0>         0.4439
     36 H5          3.2264   -2.7678   -0.8558 H         1 <0>         0.1527
     37 H6          2.4584   -2.2143   -2.3631 H         1 <0>         0.1414
     38 H7          7.0255   -0.7629    0.9008 H         1 <0>         0.1539
     39 H8          9.1578   -0.0314    1.8862 H         1 <0>         0.1488
     40 H9          9.7297    2.7008   -1.3396 H         1 <0>         0.1481
     41 H10         7.6058    1.9724   -2.3452 H         1 <0>         0.1457
     42 H11        -1.4697   -0.6272   -2.1753 H         1 <0>         0.1496
     43 H12        -3.7625   -1.5217   -2.2449 H         1 <0>         0.1409
     44 H13        -3.9067   -1.4792    2.0194 H         1 <0>         0.1405
     45 H14        -1.6098   -0.5948    2.0872 H         1 <0>         0.1333
@<TRIPOS>BOND
     1    1    2 1
     2    1   32 1
     3    1   33 1
     4    1   34 1
     5    2    8 1
     6    2    3 1
     7    2   25 1
     8    3    4 2
     9    3    5 am
    10    5    6 am
    11    5    9 1
    12    6    7 2
    13    6    8 am
    14    8   35 1
    15    9   10 1
    16    9   36 1
    17    9   37 1
    18   10   14 1
    19   10   11 2
    20   11   12 1
    21   12   13 2
    22   12   15 1
    23   13   14 1
    24   15   20 ar
    25   15   16 ar
    26   16   17 ar
    27   16   38 1
    28   17   18 ar
    29   17   39 1
    30   18   19 ar
    31   18   21 1
    32   19   20 ar
    33   19   40 1
    34   20   41 1
    35   21   22 1
    36   21   23 1
    37   21   24 1
    38   25   30 ar
    39   25   26 ar
    40   26   27 ar
    41   26   42 1
    42   27   28 ar
    43   27   43 1
    44   28   29 ar
    45   28   31 1
    46   29   30 ar
    47   29   44 1
    48   30   45 1
@<TRIPOS>MOLECULE
ZINC08758016
   55    59     0     0     0
SMALL
USER_CHARGES
6-(benzothiazol-2-ylsulfanylmethyl)-2-(4-benzylpiperazin-1-yl)-3H-pyrimidin-4-one
@<TRIPOS>ATOM
      1 C1         -5.2171   -4.6916   -4.6078 C.ar      1 <0>        -0.0821
      2 C2         -4.6373   -5.2172   -3.4683 C.ar      1 <0>        -0.1134
      3 C3         -4.5437   -4.4488   -2.3230 C.ar      1 <0>        -0.0979
      4 C4         -5.0303   -3.1549   -2.3171 C.ar      1 <0>        -0.1672
      5 C5         -5.6153   -2.6313   -3.4549 C.ar      1 <0>        -0.0928
      6 C6         -5.7042   -3.3979   -4.6017 C.ar      1 <0>        -0.1125
      7 C7         -4.9287   -2.3174   -1.0685 C.3       1 <0>         0.0512
      8 C8         -3.6263   -0.5761   -0.0022 C.3       1 <0>        -0.0022
      9 C9         -2.3248    0.2239   -0.0941 C.3       1 <0>         0.0439
     10 N1         -1.1810   -0.6929    0.0096 N.pl3     1 <0>        -0.4774
     11 C10        -1.2138   -1.6950   -1.0647 C.3       1 <0>         0.0213
     12 C11        -2.5153   -2.4950   -0.9729 C.3       1 <0>         0.0010
     13 C12         0.0021   -0.0041    0.0020 C.2       1 <0>         0.5658
     14 N2          1.1759   -0.6917   -0.0124 N.am      1 <0>        -0.6320
     15 H1          1.1716   -1.6617   -0.0176 H         1 <0>         0.4188
     16 C13         2.3467   -0.0194   -0.0200 C.2       1 <0>         0.5361
     17 O1          3.4086   -0.6201   -0.0334 O.2       1 <0>        -0.5068
     18 C14         2.3188    1.3865   -0.0126 C.2       1 <0>        -0.2593
     19 C15         1.1113    2.0220    0.0023 C.2       1 <0>         0.2072
     20 N3         -0.0158    1.3140    0.0093 N.2       1 <0>        -0.5520
     21 C16         1.0538    3.5279    0.0104 C.3       1 <0>        -0.0954
     22 S1          0.5741    4.1222   -1.6305 S.3       1 <0>         0.0874
     23 C17         0.5854    5.8604   -1.3418 C.2       1 <0>         0.1039
     24 N4          0.3140    6.8369   -2.1787 N.2       1 <0>        -0.4727
     25 C18         0.3625    8.1373   -1.8157 C.ar      1 <0>         0.0764
     26 C19         0.0958    9.2758   -2.6107 C.ar      1 <0>        -0.0554
     27 C20         0.1909   10.5369   -2.0823 C.ar      1 <0>        -0.1079
     28 C21         0.5505   10.7427   -0.7584 C.ar      1 <0>        -0.0835
     29 C22         0.8190    9.6514    0.0479 C.ar      1 <0>        -0.0693
     30 C23         0.7253    8.3852   -0.4724 C.ar      1 <0>        -0.1303
     31 S2          0.9611    6.7439    0.1657 S.3       1 <0>        -0.0017
     32 H2         -5.2900   -5.2919   -5.5027 H         1 <0>         0.1364
     33 H3         -4.2571   -6.2280   -3.4729 H         1 <0>         0.1366
     34 H4         -4.0906   -4.8594   -1.4328 H         1 <0>         0.1316
     35 H5         -5.9995   -1.6220   -3.4489 H         1 <0>         0.1321
     36 H6         -6.1576   -2.9875   -5.4919 H         1 <0>         0.1368
     37 H7         -4.9665   -2.9650   -0.1925 H         1 <0>         0.1397
     38 H8         -5.7593   -1.6124   -1.0352 H         1 <0>         0.1393
     39 H9         -3.6776   -1.0773    0.9643 H         1 <0>         0.1444
     40 H10        -4.4760    0.0984   -0.1080 H         1 <0>         0.1473
     41 H11        -2.2851    0.9484    0.7193 H         1 <0>         0.1469
     42 H12        -2.2861    0.7470   -1.0496 H         1 <0>         0.0912
     43 H13        -1.1625   -1.1938   -2.0313 H         1 <0>         0.0881
     44 H14        -0.3641   -2.3695   -0.9590 H         1 <0>         0.1297
     45 H15        -2.5540   -3.0181   -0.0173 H         1 <0>         0.1466
     46 H16        -2.5553   -3.2198   -1.7860 H         1 <0>         0.1452
     47 H17         3.2378    1.9538   -0.0180 H         1 <0>         0.1694
     48 H18         0.3206    3.8595    0.7457 H         1 <0>         0.1256
     49 H19         2.0343    3.9276    0.2693 H         1 <0>         0.1245
     50 H20        -0.1864    9.1503   -3.6456 H         1 <0>         0.1368
     51 H21        -0.0185   11.3897   -2.7110 H         1 <0>         0.1403
     52 H22         0.6198   11.7447   -0.3613 H         1 <0>         0.1447
     53 H23         1.1002    9.7951    1.0808 H         1 <0>         0.1377
     54 N5         -3.6566   -1.5644   -1.1008 N.4       1 <0>        -0.3993
     55 H24        -3.5848   -1.0692   -1.9973 H         1 <0>         0.4274
@<TRIPOS>BOND
     1    1    6 ar
     2    1    2 ar
     3    1   32 1
     4    2    3 ar
     5    2   33 1
     6    3    4 ar
     7    3   34 1
     8    4    5 ar
     9    4    7 1
    10    5    6 ar
    11    5   35 1
    12    6   36 1
    13    7   37 1
    14    7   38 1
    15    7   54 1
    16    8    9 1
    17    8   39 1
    18    8   40 1
    19    8   54 1
    20    9   10 1
    21    9   41 1
    22    9   42 1
    23   10   11 1
    24   10   13 1
    25   11   12 1
    26   11   43 1
    27   11   44 1
    28   12   45 1
    29   12   46 1
    30   12   54 1
    31   13   20 2
    32   13   14 1
    33   14   15 1
    34   14   16 am
    35   16   17 2
    36   16   18 1
    37   18   19 2
    38   18   47 1
    39   19   20 1
    40   19   21 1
    41   21   22 1
    42   21   48 1
    43   21   49 1
    44   22   23 1
    45   23   31 1
    46   23   24 2
    47   24   25 1
    48   25   30 ar
    49   25   26 ar
    50   26   27 ar
    51   26   50 1
    52   27   28 ar
    53   27   51 1
    54   28   29 ar
    55   28   52 1
    56   29   30 ar
    57   29   53 1
    58   30   31 1
    59   54   55 1
@<TRIPOS>MOLECULE
ZINC14536381
   65    68     0     0     0
SMALL
USER_CHARGES
2-ethyl-8-[(2-hydroxy-1-naphthyl)methyl]-4-isopentyl-2,4,8-triazaspiro[4.5]decane-1,3-dione
@<TRIPOS>ATOM
      1 C1         -4.4203   10.0943    6.9944 C.3       1 <0>        -0.1711
      2 C2         -2.9668    9.6177    6.9611 C.3       1 <0>         0.1109
      3 N1         -2.6560    9.0910    5.6299 N.am      1 <0>        -0.5708
      4 C3         -2.8205    7.8018    5.2670 C.2       1 <0>         0.5344
      5 O1         -3.2370    6.8934    5.9533 O.2       1 <0>        -0.4439
      6 C4         -2.3753    7.7295    3.8251 C.3       1 <0>         0.1098
      7 C5         -3.5297    7.2865    2.9316 C.3       1 <0>        -0.1404
      8 C6         -3.0427    7.1954    1.4825 C.3       1 <0>        -0.0185
      9 C7         -0.7811    6.7036    2.2053 C.3       1 <0>        -0.0299
     10 C8         -1.1920    6.7780    3.6787 C.3       1 <0>        -0.1375
     11 C9         -1.5262    6.0212    0.0053 C.3       1 <0>         0.0471
     12 C10        -0.2330    5.2481   -0.0298 C.ar      1 <0>        -0.1873
     13 C11        -0.2501    3.8438   -0.0533 C.ar      1 <0>        -0.0150
     14 C12        -1.4607    3.1293   -0.0449 C.ar      1 <0>        -0.1488
     15 C13        -1.4399    1.7689   -0.0745 C.ar      1 <0>        -0.0736
     16 C14        -0.2342    1.0703   -0.1016 C.ar      1 <0>        -0.1150
     17 C15         0.9571    1.7284   -0.1106 C.ar      1 <0>        -0.0821
     18 C16         0.9760    3.1333   -0.0867 C.ar      1 <0>        -0.0654
     19 C17         2.1877    3.8462   -0.0957 C.ar      1 <0>        -0.0379
     20 C18         2.1705    5.2057   -0.0723 C.ar      1 <0>        -0.1571
     21 C19         0.9621    5.9089   -0.0394 C.ar      1 <0>         0.1618
     22 O2          0.9773    7.2675   -0.0171 O.3       1 <0>        -0.4909
     23 N2         -1.9739    9.1047    3.5046 N.am      1 <0>        -0.6248
     24 C20        -2.1735    9.8291    4.6225 C.2       1 <0>         0.7013
     25 O3         -1.9423   11.0192    4.7070 O.2       1 <0>        -0.5096
     26 C21        -1.4580    9.5924    2.2232 C.3       1 <0>         0.1296
     27 C22        -2.4688   10.5576    1.6005 C.3       1 <0>        -0.1455
     28 C23        -1.9906   10.9674    0.2062 C.3       1 <0>        -0.0904
     29 C24        -3.0590   11.8321   -0.4658 C.3       1 <0>        -0.1522
     30 C25        -0.6905   11.7650    0.3268 C.3       1 <0>        -0.1558
     31 H1         -5.0823    9.2576    6.7710 H         1 <0>         0.0607
     32 H2         -4.6516   10.4862    7.9849 H         1 <0>         0.0853
     33 H3         -4.5626   10.8786    6.2510 H         1 <0>         0.0643
     34 H4         -2.8245    8.8334    7.7045 H         1 <0>         0.1005
     35 H5         -2.3049   10.4544    7.1845 H         1 <0>         0.1032
     36 H6         -4.3403    8.0121    2.9980 H         1 <0>         0.1256
     37 H7         -3.8880    6.3098    3.2570 H         1 <0>         0.1176
     38 H8         -2.7123    8.1787    1.1478 H         1 <0>         0.1437
     39 H9         -3.8575    6.8498    0.8464 H         1 <0>         0.1459
     40 H10         0.0448    6.0011    2.0935 H         1 <0>         0.1406
     41 H11        -0.4673    7.6905    1.8653 H         1 <0>         0.1400
     42 H12        -0.3544    7.1451    4.2719 H         1 <0>         0.1251
     43 H13        -1.4777    5.7857    4.0277 H         1 <0>         0.1184
     44 H14        -1.3899    6.9801   -0.4947 H         1 <0>         0.1462
     45 H15        -2.3034    5.4524   -0.5051 H         1 <0>         0.1415
     46 H16        -2.4025    3.6573   -0.0192 H         1 <0>         0.1233
     47 H17        -2.3714    1.2224   -0.0724 H         1 <0>         0.1342
     48 H18        -0.2455   -0.0095   -0.1201 H         1 <0>         0.1356
     49 H19         1.8834    1.1736   -0.1358 H         1 <0>         0.1393
     50 H20         3.1284    3.3162   -0.1206 H         1 <0>         0.1463
     51 H21         3.1032    5.7501   -0.0789 H         1 <0>         0.1453
     52 H22         0.9969    7.6461    0.8725 H         1 <0>         0.3869
     53 H23        -0.5130   10.1108    2.3855 H         1 <0>         0.0983
     54 H24        -1.2990    8.7493    1.5509 H         1 <0>         0.0818
     55 H25        -3.4390   10.0670    1.5223 H         1 <0>         0.0687
     56 H26        -2.5594   11.4438    2.2286 H         1 <0>         0.0909
     57 H27        -1.8148   10.0749   -0.3945 H         1 <0>         0.0666
     58 H28        -3.2347   12.7246    0.1349 H         1 <0>         0.0607
     59 H29        -2.7183   12.1241   -1.4591 H         1 <0>         0.0624
     60 H30        -3.9852   11.2639   -0.5517 H         1 <0>         0.0547
     61 H31        -0.8663   12.6575    0.9275 H         1 <0>         0.0626
     62 H32         0.0707   11.1490    0.8055 H         1 <0>         0.0532
     63 H33        -0.3498   12.0570   -0.6666 H         1 <0>         0.0622
     64 N3         -1.9321    6.2217    1.4116 N.4       1 <0>        -0.3922
     65 H34        -2.2505    5.3251    1.7977 H         1 <0>         0.4290
@<TRIPOS>BOND
     1    1    2 1
     2    1   31 1
     3    1   32 1
     4    1   33 1
     5    2    3 1
     6    2   34 1
     7    2   35 1
     8    3   24 am
     9    3    4 am
    10    4    5 2
    11    4    6 1
    12    6   10 1
    13    6    7 1
    14    6   23 1
    15    7    8 1
    16    7   36 1
    17    7   37 1
    18    8   38 1
    19    8   39 1
    20    8   64 1
    21    9   10 1
    22    9   40 1
    23    9   41 1
    24    9   64 1
    25   10   42 1
    26   10   43 1
    27   11   12 1
    28   11   44 1
    29   11   45 1
    30   11   64 1
    31   12   21 ar
    32   12   13 ar
    33   13   18 ar
    34   13   14 ar
    35   14   15 ar
    36   14   46 1
    37   15   16 ar
    38   15   47 1
    39   16   17 ar
    40   16   48 1
    41   17   18 ar
    42   17   49 1
    43   18   19 ar
    44   19   20 ar
    45   19   50 1
    46   20   21 ar
    47   20   51 1
    48   21   22 1
    49   22   52 1
    50   23   24 am
    51   23   26 1
    52   24   25 2
    53   26   27 1
    54   26   53 1
    55   26   54 1
    56   27   28 1
    57   27   55 1
    58   27   56 1
    59   28   29 1
    60   28   30 1
    61   28   57 1
    62   29   58 1
    63   29   59 1
    64   29   60 1
    65   30   61 1
    66   30   62 1
    67   30   63 1
    68   64   65 1
@<TRIPOS>MOLECULE
ZINC35492842
   63    67     0     0     0
SMALL
USER_CHARGES

@<TRIPOS>ATOM
      1 C1         -1.8665    1.0723    0.1288 C.3       1 <0>         0.0611
      2 N1         -1.3227   -0.2874    0.0887 N.am      1 <0>        -0.5262
      3 C2         -2.1912   -1.3340    0.2133 C.2       1 <0>         0.1872
      4 C3         -1.7565   -2.6102    0.1843 C.2       1 <0>        -0.2883
      5 C4         -0.2697   -2.8442    0.0086 C.3       1 <0>         0.2427
      6 H1          0.0832   -3.4208    0.8636 H         1 <0>         0.0931
      7 N2          0.5829   -1.6500   -0.1168 N.am      1 <0>        -0.7075
      8 C5         -0.0015   -0.4363   -0.0737 C.2       1 <0>         0.7098
      9 O1          0.6934    0.5553   -0.1806 O.2       1 <0>        -0.5428
     10 C6         -0.0745   -3.6854   -1.2264 C.ar      1 <0>        -0.0580
     11 C7         -0.2754   -3.1332   -2.4779 C.ar      1 <0>        -0.1003
     12 C8         -0.0964   -3.9047   -3.6105 C.ar      1 <0>        -0.0871
     13 C9          0.2841   -5.2286   -3.4922 C.ar      1 <0>        -0.1111
     14 C10         0.4859   -5.7804   -2.2411 C.ar      1 <0>        -0.0716
     15 C11         0.3110   -5.0075   -1.1083 C.ar      1 <0>        -0.1560
     16 C12         0.5361   -5.6077    0.2556 C.3       1 <0>         0.5002
     17 F1          0.8513   -6.9641    0.1219 F         1 <0>        -0.1761
     18 F2          1.5923   -4.9437    0.8887 F         1 <0>        -0.1787
     19 F3         -0.6262   -5.4724    1.0223 F         1 <0>        -0.1559
     20 C13        -2.8396   -3.5006    0.3325 C.2       1 <0>         0.5848
     21 O2         -2.7366   -4.7137    0.3430 O.2       1 <0>        -0.5087
     22 N3         -4.0017   -2.8351    0.4612 N.am      1 <0>        -0.6238
     23 C14        -3.6908   -1.3993    0.3966 C.3       1 <0>         0.1435
     24 C15        -5.3294   -3.4300    0.6331 C.3       1 <0>         0.1723
     25 C16        -5.3479   -4.2820    1.9054 C.3       1 <0>        -0.1674
     26 C17        -6.7117   -4.9635    2.0365 C.3       1 <0>         0.0000
     27 N4         -6.9488   -5.8204    0.8686 N.4       1 <0>        -0.3847
     28 C18        -7.0038   -5.0005   -0.3477 C.3       1 <0>        -0.0057
     29 C19        -5.6513   -4.3205   -0.5705 C.3       1 <0>        -0.1646
     30 C20        -8.2231   -6.5319    1.0358 C.3       1 <0>         0.0449
     31 C21        -8.4093   -7.5027   -0.1017 C.ar      1 <0>        -0.1622
     32 C22        -9.0470   -7.0972   -1.2592 C.ar      1 <0>        -0.0983
     33 C23        -9.2178   -7.9877   -2.3025 C.ar      1 <0>        -0.1140
     34 C24        -8.7505   -9.2837   -2.1886 C.ar      1 <0>        -0.0839
     35 C25        -8.1120   -9.6890   -1.0314 C.ar      1 <0>        -0.1122
     36 C26        -7.9374   -8.7972    0.0102 C.ar      1 <0>        -0.0925
     37 H2         -1.0558    1.7915    0.0125 H         1 <0>         0.1119
     38 H3         -2.5848    1.2004   -0.6810 H         1 <0>         0.0792
     39 H4         -2.3637    1.2367    1.0848 H         1 <0>         0.0798
     40 H5          1.5423   -1.7350   -0.2315 H         1 <0>         0.4393
     41 H6         -0.5727   -2.0990   -2.5703 H         1 <0>         0.1237
     42 H7         -0.2541   -3.4735   -4.5881 H         1 <0>         0.1345
     43 H8          0.4234   -5.8317   -4.3772 H         1 <0>         0.1383
     44 H9          0.7828   -6.8147   -2.1487 H         1 <0>         0.1415
     45 H10        -3.9812   -0.9065    1.3245 H         1 <0>         0.1167
     46 H11        -4.1969   -0.9396   -0.4523 H         1 <0>         0.1161
     47 H12        -6.0756   -2.6394    0.7115 H         1 <0>         0.1098
     48 H13        -4.5665   -5.0396    1.8476 H         1 <0>         0.1075
     49 H14        -5.1746   -3.6448    2.7727 H         1 <0>         0.1165
     50 H15        -6.7284   -5.5707    2.9415 H         1 <0>         0.1360
     51 H16        -7.4923   -4.2050    2.0946 H         1 <0>         0.1316
     52 H17        -7.2361   -5.6352   -1.2029 H         1 <0>         0.1355
     53 H18        -7.7782   -4.2412   -0.2388 H         1 <0>         0.1304
     54 H19        -5.6947   -3.7109   -1.4731 H         1 <0>         0.1142
     55 H20        -4.8761   -5.0789   -0.6798 H         1 <0>         0.1058
     56 H21        -8.2142   -7.0760    1.9802 H         1 <0>         0.1376
     57 H22        -9.0428   -5.8134    1.0381 H         1 <0>         0.1359
     58 H23        -9.4121   -6.0847   -1.3482 H         1 <0>         0.1306
     59 H24        -9.7167   -7.6711   -3.2066 H         1 <0>         0.1358
     60 H25        -8.8846   -9.9797   -3.0035 H         1 <0>         0.1357
     61 H26        -7.7473  -10.7016   -0.9423 H         1 <0>         0.1363
     62 H27        -7.4353   -9.1128    0.9128 H         1 <0>         0.1315
     63 H28        -6.1995   -6.4912    0.7873 H         1 <0>         0.4260
@<TRIPOS>BOND
     1    1    2 1
     2    1   37 1
     3    1   38 1
     4    1   39 1
     5    2    8 am
     6    2    3 1
     7    3   23 1
     8    3    4 2
     9    4    5 1
    10    4   20 1
    11    5    6 1
    12    5    7 1
    13    5   10 1
    14    7    8 am
    15    7   40 1
    16    8    9 2
    17   10   15 ar
    18   10   11 ar
    19   11   12 ar
    20   11   41 1
    21   12   13 ar
    22   12   42 1
    23   13   14 ar
    24   13   43 1
    25   14   15 ar
    26   14   44 1
    27   15   16 1
    28   16   17 1
    29   16   18 1
    30   16   19 1
    31   20   21 2
    32   20   22 am
    33   22   23 1
    34   22   24 1
    35   23   45 1
    36   23   46 1
    37   24   29 1
    38   24   25 1
    39   24   47 1
    40   25   26 1
    41   25   48 1
    42   25   49 1
    43   26   27 1
    44   26   50 1
    45   26   51 1
    46   27   28 1
    47   27   30 1
    48   27   63 1
    49   28   29 1
    50   28   52 1
    51   28   53 1
    52   29   54 1
    53   29   55 1
    54   30   31 1
    55   30   56 1
    56   30   57 1
    57   31   36 ar
    58   31   32 ar
    59   32   33 ar
    60   32   58 1
    61   33   34 ar
    62   33   59 1
    63   34   35 ar
    64   34   60 1
    65   35   36 ar
    66   35   61 1
    67   36   62 1
@<TRIPOS>MOLECULE
ZINC39699763
   48    52     0     0     0
SMALL
USER_CHARGES

@<TRIPOS>ATOM
      1 C1         -0.0160    1.3805    0.0111 C.ar      1 <0>        -0.0906
      2 C2          0.5374    0.9301    1.1965 C.ar      1 <0>        -0.1174
      3 C3          1.7426    0.2585    1.1871 C.ar      1 <0>        -0.0909
      4 C4          2.4031    0.0335   -0.0211 C.ar      1 <0>        -0.0743
      5 C5          1.8395    0.4899   -1.2130 C.ar      1 <0>        -0.0680
      6 C6          0.6340    1.1606   -1.1902 C.ar      1 <0>        -0.1208
      7 C7          3.6967   -0.6859   -0.0382 C.ar      1 <0>         0.3247
      8 C8          3.8853   -1.8616    0.7314 C.ar      1 <0>        -0.1819
      9 C9          2.8708   -2.3937    1.5346 C.ar      1 <0>        -0.0330
     10 C10         3.1083   -3.5286    2.2541 C.ar      1 <0>        -0.1042
     11 C11         4.3472   -4.1640    2.1998 C.ar      1 <0>        -0.0438
     12 C12         5.3559   -3.6713    1.4274 C.ar      1 <0>        -0.1026
     13 C13         5.1461   -2.5067    0.6744 C.ar      1 <0>         0.2107
     14 N1          6.1047   -1.9824   -0.1008 N.ar      1 <0>        -0.5265
     15 C14         5.8758   -0.8852   -0.7971 C.ar      1 <0>         0.5826
     16 N2          4.7072   -0.2507   -0.7778 N.ar      1 <0>        -0.5485
     17 N3          6.8936   -0.3760   -1.5854 N.pl3     1 <0>        -0.5318
     18 N4          8.1348   -1.0240   -1.6317 N.2       1 <0>        -0.1439
     19 C15         9.0760   -0.5531   -2.3605 C.2       1 <0>         0.0158
     20 C16        10.4111   -1.2502   -2.4103 C.3       1 <0>        -0.0724
     21 H1         10.3540   -2.1218   -1.7582 H         1 <0>         0.1934
     22 C17        11.4500   -0.3070   -1.8361 C.2       1 <0>         0.1576
     23 C18        12.5010    0.0278   -2.6374 C.ar      1 <0>        -0.1875
     24 C19        13.5485    0.9326   -2.1627 C.ar      1 <0>         0.0226
     25 C20        14.5764    1.2386   -2.9959 C.ar      1 <0>        -0.1694
     26 C21        14.6491    0.7096   -4.2848 C.ar      1 <0>         0.0956
     27 C22        13.7098   -0.1355   -4.7843 C.ar      1 <0>        -0.2283
     28 C23        12.6036   -0.5163   -4.0026 C.ar      1 <0>         0.3601
     29 N5         11.6883   -1.3460   -4.5029 N.am      1 <0>        -0.5949
     30 C24        10.6254   -1.7418   -3.8241 C.2       1 <0>         0.5236
     31 O1          9.8232   -2.5003   -4.3350 O.2       1 <0>        -0.4137
     32 Br1         1.7377   -4.2484    3.3399 Br        1 <0>        -0.0277
     33 H2         -0.9616    1.9021    0.0233 H         1 <0>         0.1321
     34 H3          0.0252    1.1048    2.1310 H         1 <0>         0.1352
     35 H4          2.1740   -0.0920    2.1131 H         1 <0>         0.1309
     36 H5          2.3461    0.3192   -2.1514 H         1 <0>         0.1290
     37 H6          0.1967    1.5145   -2.1122 H         1 <0>         0.1327
     38 H7          1.9067   -1.9094    1.5851 H         1 <0>         0.1526
     39 H8          4.5106   -5.0606    2.7793 H         1 <0>         0.1484
     40 H9          6.3111   -4.1742    1.3955 H         1 <0>         0.1514
     41 H10         6.7473    0.4295   -2.1057 H         1 <0>         0.4132
     42 H11         8.9131    0.3437   -2.9398 H         1 <0>         0.1353
     43 H12        11.3613    0.0835   -0.8331 H         1 <0>         0.2030
     44 H13        13.5048    1.3501   -1.1676 H         1 <0>         0.1760
     45 H14        15.3538    1.9056   -2.6536 H         1 <0>         0.1658
     46 H15        15.4858    0.9826   -4.9106 H         1 <0>         0.1676
     47 H16        13.8128   -0.5176   -5.7891 H         1 <0>         0.1709
     48 H17        11.8071   -1.6736   -5.4082 H         1 <0>         0.4414
@<TRIPOS>BOND
     1    1    6 ar
     2    1    2 ar
     3    1   33 1
     4    2    3 ar
     5    2   34 1
     6    3    4 ar
     7    3   35 1
     8    4    5 ar
     9    4    7 1
    10    5    6 ar
    11    5   36 1
    12    6   37 1
    13    7   16 ar
    14    7    8 ar
    15    8   13 ar
    16    8    9 ar
    17    9   10 ar
    18    9   38 1
    19   10   11 ar
    20   10   32 1
    21   11   12 ar
    22   11   39 1
    23   12   13 ar
    24   12   40 1
    25   13   14 ar
    26   14   15 ar
    27   15   16 ar
    28   15   17 1
    29   17   18 1
    30   17   41 1
    31   18   19 2
    32   19   20 1
    33   19   42 1
    34   20   21 1
    35   20   30 1
    36   20   22 1
    37   22   23 2
    38   22   43 1
    39   23   28 ar
    40   23   24 ar
    41   24   25 ar
    42   24   44 1
    43   25   26 ar
    44   25   45 1
    45   26   27 ar
    46   26   46 1
    47   27   28 ar
    48   27   47 1
    49   28   29 2
    50   29   30 am
    51   29   48 1
    52   30   31 2
@<TRIPOS>MOLECULE
ZINC39978987
   44    47     0     0     0
SMALL
USER_CHARGES

@<TRIPOS>ATOM
      1 C1          0.5224    1.4356   -0.6248 C.ar      1 <0>         0.0537
      2 C2          1.7438    2.1157   -0.4863 C.ar      1 <0>        -0.0625
      3 C3          2.9173    1.4767   -0.2877 C.ar      1 <0>        -0.0844
      4 C4          2.9588    0.0614   -0.2101 C.ar      1 <0>         0.2892
      5 N1          4.1052   -0.5562   -0.0160 N.2       1 <0>        -0.4554
      6 C5          4.1797   -1.8944    0.0624 C.2       1 <0>         0.4419
      7 N2          5.3240   -2.4813    0.2551 N.2       1 <0>        -0.8272
      8 S1          6.7032   -1.5773    0.4059 S.o2      1 <0>         2.6289
      9 O1          6.9221   -0.9573   -0.8539 O.2       1 <0>        -0.9284
     10 O2          6.5713   -0.8326    1.6088 O.2       1 <0>        -0.9276
     11 C6          8.0380   -2.7007    0.6529 C.ar      1 <0>        -0.6575
     12 C7          8.3891   -3.0857    1.9333 C.ar      1 <0>        -0.0016
     13 C8          9.4360   -3.9668    2.1278 C.ar      1 <0>        -0.1271
     14 C9         10.1327   -4.4636    1.0405 C.ar      1 <0>         0.0280
     15 C10         9.7808   -4.0780   -0.2407 C.ar      1 <0>        -0.1273
     16 C11         8.7301   -3.2012   -0.4342 C.ar      1 <0>        -0.0022
     17 Cl1        11.4481   -5.5700    1.2840 Cl        1 <0>        -0.0361
     18 C12         2.9134   -2.7089   -0.0762 C.3       1 <0>         0.3121
     19 H1          3.0497   -3.3962   -0.9112 H         1 <0>         0.1904
     20 N3          1.6510   -1.9848   -0.2922 N.pl3     1 <0>        -0.5155
     21 C13         1.6832   -0.6827   -0.3531 C.ar      1 <0>         0.3336
     22 C14         0.4492    0.0877   -0.5669 C.ar      1 <0>        -0.2032
     23 N4          2.7642   -3.5136    1.1388 N.pl3     1 <0>        -0.7172
     24 C15         2.3870   -4.8561    1.0459 C.ar      1 <0>         0.1848
     25 C16         2.0287   -5.3949   -0.1829 C.ar      1 <0>        -0.1813
     26 C17         1.6568   -6.7221   -0.2715 C.ar      1 <0>        -0.0624
     27 C18         1.6404   -7.5148    0.8616 C.ar      1 <0>        -0.1295
     28 C19         1.9963   -6.9823    2.0870 C.ar      1 <0>        -0.0591
     29 C20         2.3750   -5.6565    2.1821 C.ar      1 <0>        -0.0810
     30 Cl2         2.8282   -4.9901    3.7197 Cl        1 <0>        -0.0532
     31 H2         -0.3823    2.0054   -0.7772 H         1 <0>         0.1821
     32 H3          1.7447    3.1943   -0.5412 H         1 <0>         0.1785
     33 H4          3.8291    2.0469   -0.1878 H         1 <0>         0.1889
     34 H5          7.8455   -2.6975    2.7820 H         1 <0>         0.1513
     35 H6          9.7105   -4.2672    3.1282 H         1 <0>         0.1525
     36 H7         10.3244   -4.4653   -1.0898 H         1 <0>         0.1528
     37 H8          8.4522   -2.9038   -1.4346 H         1 <0>         0.1522
     38 H9         -0.5002   -0.4155   -0.6754 H         1 <0>         0.1859
     39 H10         2.9272   -3.1147    2.0078 H         1 <0>         0.4204
     40 H11         2.0405   -4.7767   -1.0684 H         1 <0>         0.1259
     41 H12         1.3782   -7.1414   -1.2270 H         1 <0>         0.1407
     42 H13         1.3484   -8.5521    0.7892 H         1 <0>         0.1425
     43 H14         1.9820   -7.6040    2.9700 H         1 <0>         0.1460
     44 H15         0.8137   -2.4652   -0.3872 H         1 <0>         0.4573
@<TRIPOS>BOND
     1    1   22 ar
     2    1    2 ar
     3    1   31 1
     4    2    3 ar
     5    2   32 1
     6    3    4 ar
     7    3   33 1
     8    4   21 ar
     9    4    5 2
    10    5    6 1
    11    6    7 2
    12    6   18 1
    13    7    8 1
    14    8    9 2
    15    8   10 2
    16    8   11 1
    17   11   16 ar
    18   11   12 ar
    19   12   13 ar
    20   12   34 1
    21   13   14 ar
    22   13   35 1
    23   14   15 ar
    24   14   17 1
    25   15   16 ar
    26   15   36 1
    27   16   37 1
    28   18   19 1
    29   18   20 1
    30   18   23 1
    31   20   21 2
    32   20   44 1
    33   21   22 ar
    34   22   38 1
    35   23   24 1
    36   23   39 1
    37   24   29 ar
    38   24   25 ar
    39   25   26 ar
    40   25   40 1
    41   26   27 ar
    42   26   41 1
    43   27   28 ar
    44   27   42 1
    45   28   29 ar
    46   28   43 1
    47   29   30 1
@<TRIPOS>MOLECULE
ZINC02341889
   46    50     0     0     0
SMALL
USER_CHARGES
4-(1-naphthylmethylsulfanyl)-9-phenyl-3,5,7,9-tetrazabicyclo[4.4.0]deca-2,4,11-triene-8,10-dione
@<TRIPOS>ATOM
      1 C1         -2.6459   16.7470   -1.2921 C.ar      1 <0>        -0.0999
      2 C2         -3.7183   15.9893   -0.8584 C.ar      1 <0>        -0.1092
      3 C3         -3.7048   14.6172   -1.0158 C.ar      1 <0>        -0.0908
      4 C4         -2.6129   13.9987   -1.6097 C.ar      1 <0>         0.1196
      5 C5         -1.5351   14.7615   -2.0390 C.ar      1 <0>        -0.0908
      6 C6         -1.5571   16.1339   -1.8845 C.ar      1 <0>        -0.1092
      7 N1         -2.5960   12.6067   -1.7704 N.am      1 <0>        -0.5135
      8 C7         -2.0815   11.8317   -0.7893 C.2       1 <0>         0.5786
      9 O1         -1.6342   12.3253    0.2284 O.2       1 <0>        -0.4681
     10 C8         -2.0780   10.3772   -0.9882 C.ar      1 <0>        -0.3169
     11 C9         -1.5709    9.4909   -0.0396 C.ar      1 <0>         0.2772
     12 N2         -1.6140    8.1956   -0.3039 N.ar      1 <0>        -0.5479
     13 C10        -2.1174    7.7433   -1.4473 C.ar      1 <0>         0.3526
     14 N3         -2.6106    8.5520   -2.3775 N.ar      1 <0>        -0.5324
     15 C11        -2.6101    9.8614   -2.1898 C.ar      1 <0>         0.4648
     16 N4         -3.1099   10.7425   -3.1245 N.am      1 <0>        -0.6247
     17 H1         -3.4904   10.3932   -3.9808 H         1 <0>         0.4525
     18 C12        -3.0906   12.0673   -2.8956 C.2       1 <0>         0.7144
     19 O2         -3.5409   12.8100   -3.7461 O.2       1 <0>        -0.5080
     20 S1         -2.1376    6.0053   -1.7367 S.3       1 <0>         0.0603
     21 C13        -1.3744    5.4223   -0.2025 C.3       1 <0>        -0.0766
     22 C14        -1.2847    3.9182   -0.2260 C.ar      1 <0>        -0.0782
     23 C15        -2.3061    3.1642    0.2651 C.ar      1 <0>        -0.0862
     24 C16        -2.2408    1.7724    0.2527 C.ar      1 <0>        -0.1191
     25 C17        -1.1541    1.1263   -0.2518 C.ar      1 <0>        -0.0910
     26 C18        -0.0825    1.8708   -0.7729 C.ar      1 <0>        -0.0536
     27 C19        -0.1463    3.2867   -0.7546 C.ar      1 <0>        -0.0346
     28 C20         0.9283    4.0315   -1.2703 C.ar      1 <0>        -0.1112
     29 C21         2.0150    3.3855   -1.7738 C.ar      1 <0>        -0.1073
     30 C22         2.0801    1.9932   -1.7869 C.ar      1 <0>        -0.1157
     31 C23         1.0586    1.2393   -1.2967 C.ar      1 <0>        -0.1024
     32 H2         -2.6589   17.8198   -1.1683 H         1 <0>         0.1321
     33 H3         -4.5674   16.4710   -0.3964 H         1 <0>         0.1341
     34 H4         -4.5429   14.0261   -0.6775 H         1 <0>         0.1259
     35 H5         -0.6826   14.2828   -2.4977 H         1 <0>         0.1259
     36 H6         -0.7212   16.7283   -2.2225 H         1 <0>         0.1341
     37 H7         -1.1567    9.8526    0.8899 H         1 <0>         0.1960
     38 H8         -1.9803    5.7370    0.6472 H         1 <0>         0.1134
     39 H9         -0.3736    5.8445   -0.1113 H         1 <0>         0.1123
     40 H10        -3.1801    3.6520    0.6709 H         1 <0>         0.1285
     41 H11        -3.0649    1.1977    0.6489 H         1 <0>         0.1288
     42 H12        -1.1176    0.0469   -0.2556 H         1 <0>         0.1307
     43 H13         0.8919    5.1109   -1.2667 H         1 <0>         0.1265
     44 H14         2.8394    3.9602   -2.1694 H         1 <0>         0.1248
     45 H15         2.9541    1.5054   -2.1926 H         1 <0>         0.1251
     46 H16         1.1227    0.1614   -1.3141 H         1 <0>         0.1293
@<TRIPOS>BOND
     1    1    6 ar
     2    1    2 ar
     3    1   32 1
     4    2    3 ar
     5    2   33 1
     6    3    4 ar
     7    3   34 1
     8    4    5 ar
     9    4    7 1
    10    5    6 ar
    11    5   35 1
    12    6   36 1
    13    7   18 am
    14    7    8 am
    15    8    9 2
    16    8   10 1
    17   10   15 ar
    18   10   11 ar
    19   11   12 ar
    20   11   37 1
    21   12   13 ar
    22   13   14 ar
    23   13   20 1
    24   14   15 ar
    25   15   16 1
    26   16   17 1
    27   16   18 am
    28   18   19 2
    29   20   21 1
    30   21   22 1
    31   21   38 1
    32   21   39 1
    33   22   27 ar
    34   22   23 ar
    35   23   24 ar
    36   23   40 1
    37   24   25 ar
    38   24   41 1
    39   25   26 ar
    40   25   42 1
    41   26   31 ar
    42   26   27 ar
    43   27   28 ar
    44   28   29 ar
    45   28   43 1
    46   29   30 ar
    47   29   44 1
    48   30   31 ar
    49   30   45 1
    50   31   46 1
@<TRIPOS>MOLECULE
ZINC07933456
   44    46     0     0     0
SMALL
USER_CHARGES
2-[1-(3-chlorophenyl)tetrazol-5-yl]sulfanyl-N-(2,5-dimethylphenyl)-propanamide
@<TRIPOS>ATOM
      1 C1         -0.2229    5.4766    1.3148 C.3       1 <0>        -0.1149
      2 C2         -0.1234    4.1277    0.6501 C.ar      1 <0>        -0.0733
      3 C3         -1.2414    3.5622    0.0643 C.ar      1 <0>        -0.1266
      4 C4         -1.1531    2.3273   -0.5511 C.ar      1 <0>        -0.0989
      5 C5          0.0503    1.6496   -0.5734 C.ar      1 <0>        -0.1124
      6 C6          1.1747    2.2148    0.0134 C.ar      1 <0>         0.1405
      7 C7          1.0839    3.4579    0.6262 C.ar      1 <0>        -0.1160
      8 N1          2.3965    1.5333   -0.0122 N.am      1 <0>        -0.6591
      9 C8          3.5500    2.2217   -0.1212 C.2       1 <0>         0.5389
     10 O1          3.5353    3.4345   -0.1151 O.2       1 <0>        -0.5012
     11 C9          4.8580    1.4847   -0.2508 C.3       1 <0>        -0.1265
     12 H1          4.7262    0.6229   -0.9050 H         1 <0>         0.1342
     13 C10         5.3156    1.0113    1.1303 C.3       1 <0>        -0.1499
     14 S1          6.1066    2.5905   -0.9538 S.3       1 <0>         0.1310
     15 C11         7.4486    1.4627   -1.1320 C.2       1 <0>         0.2053
     16 N2          7.4484    0.1875   -0.8078 N.2       1 <0>        -0.3254
     17 N3          8.5869   -0.3445   -1.0712 N.2       1 <0>        -0.0208
     18 N4          9.3921    0.5321   -1.5653 N.2       1 <0>        -0.0630
     19 N5          8.6860    1.7464   -1.6263 N.pl3     1 <0>        -0.3168
     20 C12         9.1543    2.9823   -2.0946 C.ar      1 <0>         0.1354
     21 C13         8.2962    3.8411   -2.7687 C.ar      1 <0>        -0.1103
     22 C14         8.7582    5.0602   -3.2244 C.ar      1 <0>        -0.0783
     23 C15        10.0771    5.4219   -3.0200 C.ar      1 <0>        -0.0928
     24 C16        10.9364    4.5663   -2.3533 C.ar      1 <0>        -0.0189
     25 C17        10.4777    3.3470   -1.8903 C.ar      1 <0>        -0.0869
     26 Cl1        12.5915    5.0241   -2.0986 Cl        1 <0>        -0.0444
     27 C18         0.1443    0.3009   -1.2394 C.3       1 <0>        -0.1169
     28 H2         -0.0114    6.2578    0.5847 H         1 <0>         0.0726
     29 H3         -1.2289    5.6128    1.7117 H         1 <0>         0.0680
     30 H4          0.4998    5.5347    2.1287 H         1 <0>         0.0669
     31 H5         -2.1845    4.0881    0.0843 H         1 <0>         0.1246
     32 H6         -2.0269    1.8903   -1.0116 H         1 <0>         0.1277
     33 H7          1.9567    3.9003    1.0832 H         1 <0>         0.1400
     34 H8          2.4133    0.5653    0.0486 H         1 <0>         0.4147
     35 H9          5.4474    1.8731    1.7846 H         1 <0>         0.0761
     36 H10         4.5637    0.3453    1.5537 H         1 <0>         0.0795
     37 H11         6.2617    0.4782    1.0366 H         1 <0>         0.0921
     38 H12         7.2671    3.5576   -2.9328 H         1 <0>         0.1449
     39 H13         8.0898    5.7299   -3.7451 H         1 <0>         0.1535
     40 H14        10.4373    6.3737   -3.3816 H         1 <0>         0.1490
     41 H15        11.1486    2.6789   -1.3706 H         1 <0>         0.1498
     42 H16        -0.0684   -0.4802   -0.5096 H         1 <0>         0.0726
     43 H17        -0.5798    0.2458   -2.0522 H         1 <0>         0.0731
     44 H18         1.1492    0.1618   -1.6380 H         1 <0>         0.0628
@<TRIPOS>BOND
     1    1    2 1
     2    1   28 1
     3    1   29 1
     4    1   30 1
     5    2    7 ar
     6    2    3 ar
     7    3    4 ar
     8    3   31 1
     9    4    5 ar
    10    4   32 1
    11    5    6 ar
    12    5   27 1
    13    6    7 ar
    14    6    8 1
    15    7   33 1
    16    8    9 am
    17    8   34 1
    18    9   10 2
    19    9   11 1
    20   11   12 1
    21   11   13 1
    22   11   14 1
    23   13   35 1
    24   13   36 1
    25   13   37 1
    26   14   15 1
    27   15   19 1
    28   15   16 2
    29   16   17 1
    30   17   18 2
    31   18   19 1
    32   19   20 1
    33   20   25 ar
    34   20   21 ar
    35   21   22 ar
    36   21   38 1
    37   22   23 ar
    38   22   39 1
    39   23   24 ar
    40   23   40 1
    41   24   25 ar
    42   24   26 1
    43   25   41 1
    44   27   42 1
    45   27   43 1
    46   27   44 1
@<TRIPOS>MOLECULE
ZINC20882235
   51    54     0     0     0
SMALL
USER_CHARGES
(4R,7S)-7-(4-ethylphenyl)-4-(3-nitrophenyl)-1,3,4,6,7,8-hexahydroquinoline-2,5-dione
@<TRIPOS>ATOM
      1 C1          3.4934    8.5900   -9.4437 C.3       1 <0>        -0.1494
      2 C2          4.5349    8.3067   -8.3593 C.3       1 <0>        -0.0899
      3 C3          3.8510    7.7397   -7.1419 C.ar      1 <0>        -0.0768
      4 C4          3.6860    6.3731   -7.0155 C.ar      1 <0>        -0.1149
      5 C5          3.0583    5.8531   -5.8990 C.ar      1 <0>        -0.1068
      6 C6          2.5957    6.6997   -4.9090 C.ar      1 <0>        -0.0905
      7 C7          2.7561    8.0666   -5.0379 C.ar      1 <0>        -0.1100
      8 C8          3.3884    8.5863   -6.1519 C.ar      1 <0>        -0.1148
      9 C9          1.9110    6.1328   -3.6921 C.3       1 <0>        -0.0348
     10 H1          1.8933    5.0372   -3.7884 H         1 <0>         0.0923
     11 C10         2.6770    6.5449   -2.4330 C.3       1 <0>        -0.0945
     12 C11         1.9636    6.0206   -1.2116 C.2       1 <0>         0.2333
     13 C12         0.6228    5.8672   -1.2061 C.2       1 <0>        -0.2811
     14 C13        -0.0705    5.3471    0.0311 C.3       1 <0>         0.0077
     15 H2         -1.1155    5.6905    0.0323 H         1 <0>         0.1201
     16 C14         0.6571    5.8603    1.2749 C.3       1 <0>        -0.1401
     17 C15         2.1365    5.6231    1.1140 C.2       1 <0>         0.5232
     18 O1          2.8162    5.3611    2.0833 O.2       1 <0>        -0.5003
     19 N1          2.7043    5.7015   -0.1020 N.am      1 <0>        -0.6760
     20 C16        -0.0501    3.8402    0.0228 C.ar      1 <0>        -0.0747
     21 C17         1.1565    3.1653    0.0076 C.ar      1 <0>        -0.0751
     22 C18         1.1752    1.7833    0.0004 C.ar      1 <0>        -0.1118
     23 C19        -0.0126    1.0758    0.0080 C.ar      1 <0>        -0.0556
     24 C20        -1.2188    1.7505    0.0173 C.ar      1 <0>        -0.0394
     25 C21        -1.2375    3.1329    0.0299 C.ar      1 <0>        -0.0416
     26 N2         -2.4905    0.9931    0.0193 N.pl3     1 <0>         0.0262
     27 O2         -2.4740   -0.2248    0.0126 O.2       1 <0>        -0.1577
     28 O3         -3.5535    1.5877    0.0276 O.3       1 <0>        -0.1535
     29 C22        -0.1540    6.1803   -2.3340 C.2       1 <0>         0.4066
     30 O4         -1.3599    6.0404   -2.2873 O.2       1 <0>        -0.4625
     31 C23         0.4851    6.6859   -3.5997 C.3       1 <0>        -0.1612
     32 H3          3.9925    9.0038  -10.3323 H         1 <0>         0.0600
     33 H4          2.7579    9.3151   -9.0652 H         1 <0>         0.0565
     34 H5          2.9810    7.6547   -9.7132 H         1 <0>         0.0564
     35 H6          5.2704    7.5816   -8.7378 H         1 <0>         0.0730
     36 H7          5.0474    9.2420   -8.0898 H         1 <0>         0.0731
     37 H8          4.0471    5.7117   -7.7891 H         1 <0>         0.1226
     38 H9          2.9291    4.7854   -5.8004 H         1 <0>         0.1225
     39 H10         2.3907    8.7283   -4.2665 H         1 <0>         0.1220
     40 H11         3.5170    9.6540   -6.2509 H         1 <0>         0.1225
     41 H12         3.6940    6.1273   -2.4694 H         1 <0>         0.0977
     42 H13         2.7329    7.6422   -2.3805 H         1 <0>         0.1091
     43 H14         0.4658    6.9370    1.3935 H         1 <0>         0.1191
     44 H15         0.2906    5.3229    2.1620 H         1 <0>         0.1180
     45 H16         3.7822    5.5046   -0.1983 H         1 <0>         0.4431
     46 H17         2.0843    3.7180    0.0017 H         1 <0>         0.1380
     47 H18         2.1177    1.2561   -0.0115 H         1 <0>         0.1482
     48 H19         0.0021   -0.0041    0.0020 H         1 <0>         0.1552
     49 H20        -2.1800    3.6602    0.0414 H         1 <0>         0.1573
     50 H21         0.5185    7.7853   -3.5855 H         1 <0>         0.1065
     51 H22        -0.0964    6.3480   -4.4701 H         1 <0>         0.1027
@<TRIPOS>BOND
     1    1    2 1
     2    1   32 1
     3    1   33 1
     4    1   34 1
     5    2    3 1
     6    2   35 1
     7    2   36 1
     8    3    8 ar
     9    3    4 ar
    10    4    5 ar
    11    4   37 1
    12    5    6 ar
    13    5   38 1
    14    6    7 ar
    15    6    9 1
    16    7    8 ar
    17    7   39 1
    18    8   40 1
    19    9   10 1
    20    9   31 1
    21    9   11 1
    22   11   12 1
    23   11   41 1
    24   11   42 1
    25   12   19 1
    26   12   13 2
    27   13   14 1
    28   13   29 1
    29   14   15 1
    30   14   16 1
    31   14   20 1
    32   16   17 1
    33   16   43 1
    34   16   44 1
    35   17   18 2
    36   17   19 am
    37   19   45 1
    38   20   25 ar
    39   20   21 ar
    40   21   22 ar
    41   21   46 1
    42   22   23 ar
    43   22   47 1
    44   23   24 ar
    45   23   48 1
    46   24   25 ar
    47   24   26 1
    48   25   49 1
    49   26   27 2
    50   26   28 1
    51   29   30 2
    52   29   31 1
    53   31   50 1
    54   31   51 1
@<TRIPOS>MOLECULE
ZINC39421062
   58    61     0     0     0
SMALL
USER_CHARGES

@<TRIPOS>ATOM
      1 C1         -0.0173    1.4248    0.0099 C.3       1 <0>         0.0289
      2 O1          0.0021   -0.0041    0.0020 O.3       1 <0>        -0.3217
      3 C2          0.6062   -0.6076   -1.0565 C.ar      1 <0>         0.0720
      4 C3          1.1728    0.1615   -2.0621 C.ar      1 <0>        -0.1583
      5 C4          1.7865   -0.4505   -3.1374 C.ar      1 <0>        -0.1535
      6 C5          1.8363   -1.8362   -3.2115 C.ar      1 <0>         0.1839
      7 C6          1.2688   -2.6054   -2.2043 C.ar      1 <0>        -0.1569
      8 C7          0.6605   -1.9917   -1.1269 C.ar      1 <0>        -0.1033
      9 N1          2.4575   -2.4571   -4.3009 N.pl3     1 <0>        -0.7446
     10 C8          2.5098   -3.9191   -4.3787 C.3       1 <0>         0.1432
     11 H1          1.5960   -4.3388   -3.9580 H         1 <0>         0.0838
     12 C9          3.7172   -4.4298   -3.5891 C.3       1 <0>        -0.1383
     13 C10         3.7541   -5.9589   -3.6424 C.3       1 <0>        -0.1342
     14 C11         3.9019   -6.4116   -5.0984 C.3       1 <0>         0.0941
     15 N2          2.8252   -5.8059   -5.8936 N.am      1 <0>        -0.6034
     16 C12         2.6427   -4.3488   -5.8431 C.3       1 <0>         0.1073
     17 C13         2.0197   -6.5723   -6.6554 C.2       1 <0>         0.5502
     18 O2          1.1344   -6.0602   -7.3074 O.2       1 <0>        -0.5141
     19 C14         2.2190   -8.0655   -6.6971 C.3       1 <0>        -0.1646
     20 H2          2.1176   -8.4936   -5.6999 H         1 <0>         0.1583
     21 C15         3.5711   -8.4080   -7.2911 C.2       1 <0>         0.0720
     22 N3          3.3253   -9.0962   -8.3567 N.2       1 <0>        -0.2895
     23 N4          1.9627   -9.2721   -8.5730 N.2       1 <0>        -0.3120
     24 C16         1.2386   -8.7092   -7.6576 C.2       1 <0>         0.1557
     25 C17        -0.2655   -8.6948   -7.5651 C.3       1 <0>        -0.0212
     26 C18        -0.7071   -9.4621   -6.3172 C.3       1 <0>        -0.1096
     27 C19        -2.2341   -9.4475   -6.2233 C.3       1 <0>        -0.1174
     28 C20        -2.8280  -10.1117   -7.4672 C.3       1 <0>        -0.1227
     29 C21        -2.3864   -9.3443   -8.7150 C.3       1 <0>        -0.1206
     30 C22        -0.8593   -9.3589   -8.8089 C.3       1 <0>        -0.1070
     31 H3          1.0053    1.8021    0.0021 H         1 <0>         0.0529
     32 H4         -0.5445    1.7859   -0.8732 H         1 <0>         0.0530
     33 H5         -0.5275    1.7763    0.9067 H         1 <0>         0.0982
     34 H6          1.1336    1.2393   -2.0045 H         1 <0>         0.1274
     35 H7          2.2273    0.1485   -3.9206 H         1 <0>         0.1230
     36 H8          1.3071   -3.6832   -2.2612 H         1 <0>         0.1265
     37 H9          0.2233   -2.5898   -0.3410 H         1 <0>         0.1295
     38 H10         2.8535   -1.9196   -5.0045 H         1 <0>         0.3996
     39 H11         4.6322   -4.0291   -4.0252 H         1 <0>         0.0704
     40 H12         3.6368   -4.1045   -2.5519 H         1 <0>         0.0750
     41 H13         4.6008   -6.3229   -3.0604 H         1 <0>         0.0859
     42 H14         2.8286   -6.3597   -3.2289 H         1 <0>         0.0716
     43 H15         4.8683   -6.0882   -5.4853 H         1 <0>         0.0812
     44 H16         3.8294   -7.4979   -5.1524 H         1 <0>         0.0891
     45 H17         1.7396   -4.0740   -6.3880 H         1 <0>         0.1017
     46 H18         3.5062   -3.8572   -6.2912 H         1 <0>         0.0761
     47 H19         4.5408   -8.1330   -6.9033 H         1 <0>         0.2061
     48 H20        -0.6158   -7.6646   -7.5011 H         1 <0>         0.1123
     49 H21        -0.3568  -10.4923   -6.3813 H         1 <0>         0.0682
     50 H22        -0.2840   -8.9889   -5.4311 H         1 <0>         0.0631
     51 H23        -2.5487   -9.9941   -5.3343 H         1 <0>         0.0675
     52 H24        -2.5844   -8.4173   -6.1593 H         1 <0>         0.0661
     53 H25        -2.4777  -11.1419   -7.5312 H         1 <0>         0.0634
     54 H26        -3.9159  -10.1013   -7.4002 H         1 <0>         0.0644
     55 H27        -2.8095   -9.8175   -9.6012 H         1 <0>         0.0671
     56 H28        -2.7366   -8.3141   -8.6510 H         1 <0>         0.0642
     57 H29        -0.5448   -8.8123   -9.6979 H         1 <0>         0.0691
     58 H30        -0.5091  -10.3891   -8.8730 H         1 <0>         0.0706
@<TRIPOS>BOND
     1    1    2 1
     2    1   31 1
     3    1   32 1
     4    1   33 1
     5    2    3 1
     6    3    8 ar
     7    3    4 ar
     8    4    5 ar
     9    4   34 1
    10    5    6 ar
    11    5   35 1
    12    6    7 ar
    13    6    9 1
    14    7    8 ar
    15    7   36 1
    16    8   37 1
    17    9   10 1
    18    9   38 1
    19   10   11 1
    20   10   16 1
    21   10   12 1
    22   12   13 1
    23   12   39 1
    24   12   40 1
    25   13   14 1
    26   13   41 1
    27   13   42 1
    28   14   15 1
    29   14   43 1
    30   14   44 1
    31   15   16 1
    32   15   17 am
    33   16   45 1
    34   16   46 1
    35   17   18 2
    36   17   19 1
    37   19   20 1
    38   19   24 1
    39   19   21 1
    40   21   22 2
    41   21   47 1
    42   22   23 1
    43   23   24 2
    44   24   25 1
    45   25   30 1
    46   25   26 1
    47   25   48 1
    48   26   27 1
    49   26   49 1
    50   26   50 1
    51   27   28 1
    52   27   51 1
    53   27   52 1
    54   28   29 1
    55   28   53 1
    56   28   54 1
    57   29   30 1
    58   29   55 1
    59   29   56 1
    60   30   57 1
    61   30   58 1
@<TRIPOS>MOLECULE
ZINC27384884
   44    47     0     0     0
SMALL
USER_CHARGES

@<TRIPOS>ATOM
      1 C1         -1.0737   -0.5340    0.5761 C.ar      1 <0>        -0.0882
      2 C2         -0.9681   -1.7745    1.1797 C.ar      1 <0>        -0.1260
      3 C3          0.2364   -2.4471    1.1748 C.ar      1 <0>        -0.0554
      4 C4          1.3500   -1.8735    0.5590 C.ar      1 <0>        -0.1406
      5 C5          1.2366   -0.6217   -0.0481 C.ar      1 <0>        -0.0856
      6 C6          0.0263    0.0402   -0.0361 C.ar      1 <0>        -0.1263
      7 C7          2.6439   -2.5882    0.5504 C.2       1 <0>         0.5619
      8 O1          2.7398   -3.6781    1.0803 O.2       1 <0>        -0.5117
      9 N1          3.7172   -2.0316   -0.0450 N.am      1 <0>        -0.6704
     10 C8          4.9645   -2.6625    0.0296 C.ar      1 <0>         0.1556
     11 C9          6.1232   -1.9022    0.1208 C.ar      1 <0>        -0.1286
     12 C10         7.3531   -2.5250    0.1943 C.ar      1 <0>        -0.0941
     13 C11         7.4318   -3.9104    0.1765 C.ar      1 <0>         0.0588
     14 C12         6.2744   -4.6706    0.0854 C.ar      1 <0>        -0.0900
     15 C13         5.0435   -4.0491    0.0181 C.ar      1 <0>        -0.1062
     16 O2          8.6431   -4.5230    0.2480 O.3       1 <0>        -0.2718
     17 C14         9.2662   -4.5546    1.4415 C.2       1 <0>         0.5195
     18 O3          8.7888   -3.9679    2.3914 O.2       1 <0>        -0.4471
     19 C15        10.5335   -5.3049    1.5955 C.2       1 <0>         0.1145
     20 C16        11.1341   -5.3226    2.8110 C.2       1 <0>        -0.2080
     21 C17        12.4032   -6.0580    2.9505 C.2       1 <0>         0.4230
     22 O4         12.8864   -6.3108    4.0399 O.2       1 <0>        -0.4344
     23 C18        13.0542   -6.4706    1.6909 C.ar      1 <0>        -0.2252
     24 C19        14.3661   -6.9399    1.6682 C.ar      1 <0>        -0.0284
     25 C20        14.9324   -7.3058    0.4782 C.ar      1 <0>        -0.1443
     26 C21        14.2085   -7.2104   -0.7021 C.ar      1 <0>        -0.0519
     27 C22        12.9094   -6.7506   -0.6981 C.ar      1 <0>        -0.1353
     28 C23        12.3109   -6.3766    0.5014 C.ar      1 <0>         0.1482
     29 O5         11.0356   -5.9425    0.5290 O.3       1 <0>        -0.2068
     30 H1         -2.0200   -0.0136    0.5788 H         1 <0>         0.1304
     31 H2         -1.8304   -2.2171    1.6561 H         1 <0>         0.1333
     32 H3          0.3176   -3.4152    1.6467 H         1 <0>         0.1384
     33 H4          2.0946   -0.1722   -0.5259 H         1 <0>         0.1259
     34 H5         -0.0628    1.0088   -0.5055 H         1 <0>         0.1319
     35 H6          3.6254   -1.1938   -0.5252 H         1 <0>         0.4133
     36 H7          6.0622   -0.8240    0.1339 H         1 <0>         0.1375
     37 H8          8.2542   -1.9339    0.2653 H         1 <0>         0.1357
     38 H9          6.3363   -5.7487    0.0712 H         1 <0>         0.1396
     39 H10         4.1425   -4.6409   -0.0481 H         1 <0>         0.1515
     40 H11        10.6942   -4.8111    3.6543 H         1 <0>         0.1807
     41 H12        14.9325   -7.0140    2.5848 H         1 <0>         0.1441
     42 H13        15.9487   -7.6707    0.4568 H         1 <0>         0.1396
     43 H14        14.6690   -7.4996   -1.6352 H         1 <0>         0.1442
     44 H15        12.3572   -6.6804   -1.6235 H         1 <0>         0.1484
@<TRIPOS>BOND
     1    1    6 ar
     2    1    2 ar
     3    1   30 1
     4    2    3 ar
     5    2   31 1
     6    3    4 ar
     7    3   32 1
     8    4    5 ar
     9    4    7 1
    10    5    6 ar
    11    5   33 1
    12    6   34 1
    13    7    8 2
    14    7    9 am
    15    9   10 1
    16    9   35 1
    17   10   15 ar
    18   10   11 ar
    19   11   12 ar
    20   11   36 1
    21   12   13 ar
    22   12   37 1
    23   13   14 ar
    24   13   16 1
    25   14   15 ar
    26   14   38 1
    27   15   39 1
    28   16   17 1
    29   17   18 2
    30   17   19 1
    31   19   29 1
    32   19   20 2
    33   20   21 1
    34   20   40 1
    35   21   22 2
    36   21   23 1
    37   23   28 ar
    38   23   24 ar
    39   24   25 ar
    40   24   41 1
    41   25   26 ar
    42   25   42 1
    43   26   27 ar
    44   26   43 1
    45   27   28 ar
    46   27   44 1
    47   28   29 1
@<TRIPOS>MOLECULE
ZINC66976734
   63    64     0     0     0
SMALL
USER_CHARGES

@<TRIPOS>ATOM
      1 C1         -0.6046   -1.8601   -1.0262 C.3       1 <0>        -0.1821
      2 C2         -0.1038   -0.5806   -0.3532 C.3       1 <0>         0.1202
      3 N1          0.5286   -0.9165    0.9249 N.pl3     1 <0>        -0.9941
      4 C3         -0.2843   -1.0216    2.1391 C.3       1 <0>         0.1504
      5 C4         -1.0353    0.2926    2.3653 C.3       1 <0>        -0.1467
      6 C5         -1.8571    0.1912    3.6541 C.3       1 <0>         0.1317
      7 N2         -2.7237   -0.9923    3.5705 N.am      1 <0>        -0.6307
      8 C6         -2.1141   -2.2942    3.2669 C.3       1 <0>         0.1127
      9 C7         -1.2894   -2.1650    1.9824 C.3       1 <0>        -0.1446
     10 C8         -4.0525   -0.8859    3.7690 C.2       1 <0>         0.7094
     11 O1         -4.5330    0.1777    4.1101 O.2       1 <0>        -0.5870
     12 N3         -4.8488   -1.9583    3.5894 N.am      1 <0>        -0.7345
     13 C9         -6.3034   -1.8157    3.6895 C.3       1 <0>         0.1727
     14 H1         -6.6180   -0.9185    3.1564 H         1 <0>         0.0842
     15 C10        -6.7045   -1.7014    5.1615 C.3       1 <0>        -0.1296
     16 C11        -6.2629   -2.9608    5.9097 C.3       1 <0>        -0.0882
     17 H2         -6.5487   -2.8794    6.9584 H         1 <0>         0.0674
     18 C12        -6.9393   -4.1855    5.2904 C.3       1 <0>        -0.1156
     19 C13        -6.5381   -4.2998    3.8183 C.3       1 <0>        -0.1187
     20 C14        -6.9797   -3.0404    3.0701 C.3       1 <0>        -0.0907
     21 H3         -8.0620   -2.9342    3.1446 H         1 <0>         0.0873
     22 C15        -6.5786   -3.1546    1.5981 C.3       1 <0>        -0.0887
     23 C16        -7.2550   -4.3793    0.9788 C.3       1 <0>        -0.1507
     24 C17        -7.0202   -1.8952    0.8499 C.3       1 <0>        -0.1502
     25 C18        -4.7438   -3.1098    5.8052 C.3       1 <0>        -0.1449
     26 S1          2.1623   -1.1773    0.9971 S.o2      1 <0>         2.6046
     27 O2          2.3435   -2.0350    2.1155 O.2       1 <0>        -0.9537
     28 O3          2.5192   -1.6059   -0.3099 O.2       1 <0>        -0.9505
     29 C19         2.8802    0.4534    1.3376 C.3       1 <0>        -0.6754
     30 H4         -1.2712   -2.3911   -0.3466 H         1 <0>         0.0659
     31 H5         -1.1442   -1.6038   -1.9379 H         1 <0>         0.0653
     32 H6          0.2447   -2.4970   -1.2735 H         1 <0>         0.0662
     33 H7          0.6233   -0.0902   -1.0005 H         1 <0>         0.0801
     34 H8         -0.9445    0.0904   -0.1773 H         1 <0>         0.0810
     35 H9          0.3628   -1.2214    2.9932 H         1 <0>         0.1029
     36 H10        -0.3197    1.1100    2.4535 H         1 <0>         0.0806
     37 H11        -1.7012    0.4807    1.5230 H         1 <0>         0.0772
     38 H12        -1.1869    0.0938    4.5081 H         1 <0>         0.0681
     39 H13        -2.4699    1.0854    3.7681 H         1 <0>         0.0990
     40 H14        -1.4648   -2.5944    4.0894 H         1 <0>         0.0758
     41 H15        -2.8964   -3.0399    3.1254 H         1 <0>         0.0770
     42 H16        -1.9529   -1.9538    1.1438 H         1 <0>         0.0812
     43 H17        -0.7546   -3.0967    1.7981 H         1 <0>         0.0837
     44 H18        -4.4587   -2.8247    3.3939 H         1 <0>         0.3949
     45 H19        -6.2227   -0.8289    5.6027 H         1 <0>         0.0755
     46 H20        -7.7868   -1.5953    5.2360 H         1 <0>         0.0685
     47 H21        -6.6247   -5.0827    5.8234 H         1 <0>         0.0623
     48 H22        -8.0216   -4.0793    5.3648 H         1 <0>         0.0635
     49 H23        -5.4559   -4.4059    3.7439 H         1 <0>         0.0602
     50 H24        -7.0200   -5.1722    3.3771 H         1 <0>         0.0701
     51 H25        -5.4963   -3.2608    1.5236 H         1 <0>         0.0660
     52 H26        -8.3372   -4.2732    1.0532 H         1 <0>         0.0554
     53 H27        -6.9692   -4.4607   -0.0700 H         1 <0>         0.0539
     54 H28        -6.9404   -5.2765    1.5118 H         1 <0>         0.0576
     55 H29        -6.5383   -1.0227    1.2911 H         1 <0>         0.0573
     56 H30        -6.7344   -1.9766   -0.1988 H         1 <0>         0.0534
     57 H31        -8.1024   -1.7891    0.9244 H         1 <0>         0.0553
     58 H32        -4.2719   -2.1401    5.9632 H         1 <0>         0.0525
     59 H33        -4.3946   -3.8116    6.5626 H         1 <0>         0.0431
     60 H34        -4.4827   -3.4839    4.8153 H         1 <0>         0.0593
     61 H35         2.4902    0.8320    2.2825 H         1 <0>         0.1274
     62 H36         3.9649    0.3669    1.4009 H         1 <0>         0.1283
     63 H37         2.6168    1.1413    0.5342 H         1 <0>         0.1274
@<TRIPOS>BOND
     1    1    2 1
     2    1   30 1
     3    1   31 1
     4    1   32 1
     5    2    3 1
     6    2   33 1
     7    2   34 1
     8    3    4 1
     9    3   26 1
    10    4    9 1
    11    4    5 1
    12    4   35 1
    13    5    6 1
    14    5   36 1
    15    5   37 1
    16    6    7 1
    17    6   38 1
    18    6   39 1
    19    7    8 1
    20    7   10 am
    21    8    9 1
    22    8   40 1
    23    8   41 1
    24    9   42 1
    25    9   43 1
    26   10   11 2
    27   10   12 am
    28   12   13 1
    29   12   44 1
    30   13   14 1
    31   13   20 1
    32   13   15 1
    33   15   16 1
    34   15   45 1
    35   15   46 1
    36   16   17 1
    37   16   18 1
    38   16   25 1
    39   18   19 1
    40   18   47 1
    41   18   48 1
    42   19   20 1
    43   19   49 1
    44   19   50 1
    45   20   21 1
    46   20   22 1
    47   22   23 1
    48   22   24 1
    49   22   51 1
    50   23   52 1
    51   23   53 1
    52   23   54 1
    53   24   55 1
    54   24   56 1
    55   24   57 1
    56   25   58 1
    57   25   59 1
    58   25   60 1
    59   26   27 2
    60   26   28 2
    61   26   29 1
    62   29   61 1
    63   29   62 1
    64   29   63 1
@<TRIPOS>MOLECULE
ZINC14986724
   56    59     0     0     0
SMALL
USER_CHARGES
(7S)-7-(isobutylamino)-3-[(2-methoxyphenyl)methyl]-5,6,7,8-tetrahydrobenzothiopheno[3,2-e]pyrimidin-4-one
@<TRIPOS>ATOM
      1 C1          8.2031    7.9526   -2.1726 C.3       1 <0>        -0.1530
      2 C2          7.9531    7.0679   -0.9496 C.3       1 <0>        -0.1184
      3 C3          7.5162    7.9394    0.2296 C.3       1 <0>        -0.1712
      4 C4          6.8528    6.0542   -1.2698 C.3       1 <0>        -0.0054
      5 C5          5.6450    4.1388   -0.4123 C.3       1 <0>         0.0317
      6 H1          5.6433    3.8865   -1.4727 H         1 <0>         0.1465
      7 C6          5.9017    2.8763    0.4157 C.3       1 <0>        -0.1415
      8 C7          4.9658    1.7563   -0.0404 C.3       1 <0>        -0.0558
      9 C8          3.5308    2.2756   -0.0223 C.2       1 <0>        -0.0267
     10 C9          3.2777    3.6014   -0.0114 C.2       1 <0>        -0.2191
     11 S1          1.5100    3.7315    0.0086 S.3       1 <0>         0.1749
     12 C10         1.1161    2.0009    0.0021 C.2       1 <0>         0.1271
     13 C11         2.3749    1.3798   -0.0141 C.2       1 <0>        -0.2619
     14 C12         2.3590   -0.0536   -0.0216 C.2       1 <0>         0.5467
     15 O1          3.4017   -0.6848   -0.0358 O.2       1 <0>        -0.4838
     16 N1          1.1733   -0.6909   -0.0130 N.am      1 <0>        -0.5227
     17 C13         0.0021   -0.0041    0.0020 C.2       1 <0>         0.4103
     18 N2         -0.0156    1.3021    0.0092 N.2       1 <0>        -0.5028
     19 C14         1.1461   -2.1556   -0.0196 C.3       1 <0>         0.1425
     20 C15         1.1224   -2.6512   -1.4426 C.ar      1 <0>        -0.1651
     21 C16        -0.0692   -3.0528   -2.0151 C.ar      1 <0>        -0.0624
     22 C17        -0.0916   -3.5075   -3.3205 C.ar      1 <0>        -0.1594
     23 C18         1.0779   -3.5612   -4.0566 C.ar      1 <0>        -0.0630
     24 C19         2.2715   -3.1599   -3.4891 C.ar      1 <0>        -0.2150
     25 C20         2.2959   -2.6991   -2.1806 C.ar      1 <0>         0.1484
     26 O2          3.4683   -2.2993   -1.6215 O.3       1 <0>        -0.2797
     27 C21         4.6370   -2.3760   -2.4403 C.3       1 <0>         0.0295
     28 C22         4.2782    4.7166   -0.0173 C.3       1 <0>        -0.0406
     29 H2          7.2860    8.4816   -2.4319 H         1 <0>         0.0682
     30 H3          8.9870    8.6748   -1.9445 H         1 <0>         0.0779
     31 H4          8.5143    7.3317   -3.0127 H         1 <0>         0.0677
     32 H5          8.8702    6.5389   -0.6903 H         1 <0>         0.0940
     33 H6          7.3382    7.3091    1.1009 H         1 <0>         0.0516
     34 H7          8.3001    8.6616    0.4577 H         1 <0>         0.0835
     35 H8          6.5992    8.4684   -0.0297 H         1 <0>         0.0733
     36 H9          7.1246    5.4931   -2.1639 H         1 <0>         0.1330
     37 H10         5.9136    6.5798   -1.4423 H         1 <0>         0.1320
     38 H11         5.7225    3.0915    1.4691 H         1 <0>         0.0934
     39 H12         6.9363    2.5602    0.2828 H         1 <0>         0.0951
     40 H13         5.0555    0.9070    0.6368 H         1 <0>         0.1093
     41 H14         5.2302    1.4488   -1.0521 H         1 <0>         0.0908
     42 H15        -0.9314   -0.5473    0.0078 H         1 <0>         0.2186
     43 H16         2.0343   -2.5378    0.4835 H         1 <0>         0.1165
     44 H17         0.2547   -2.5048    0.5016 H         1 <0>         0.1093
     45 H18        -0.9838   -3.0118   -1.4423 H         1 <0>         0.1337
     46 H19        -1.0240   -3.8210   -3.7662 H         1 <0>         0.1301
     47 H20         1.0578   -3.9168   -5.0762 H         1 <0>         0.1287
     48 H21         3.1845   -3.2017   -4.0645 H         1 <0>         0.1297
     49 H22         4.5044   -1.7494   -3.3223 H         1 <0>         0.0484
     50 H23         5.5009   -2.0281   -1.8740 H         1 <0>         0.0986
     51 H24         4.7970   -3.4090   -2.7492 H         1 <0>         0.0542
     52 H25         3.9777    5.4756   -0.7397 H         1 <0>         0.1050
     53 H26         4.3402    5.1594    0.9768 H         1 <0>         0.1027
     54 N3          6.7014    5.1291   -0.1308 N.4       1 <0>        -0.5177
     55 H27         6.4492    5.6639    0.7087 H         1 <0>         0.4291
     56 H28         7.5900    4.6402    0.0290 H         1 <0>         0.4332
@<TRIPOS>BOND
     1    1    2 1
     2    1   29 1
     3    1   30 1
     4    1   31 1
     5    2    3 1
     6    2    4 1
     7    2   32 1
     8    3   33 1
     9    3   34 1
    10    3   35 1
    11    4   36 1
    12    4   37 1
    13    4   54 1
    14    5    6 1
    15    5   28 1
    16    5    7 1
    17    5   54 1
    18    7    8 1
    19    7   38 1
    20    7   39 1
    21    8    9 1
    22    8   40 1
    23    8   41 1
    24    9   13 1
    25    9   10 2
    26   10   11 1
    27   10   28 1
    28   11   12 1
    29   12   18 1
    30   12   13 2
    31   13   14 1
    32   14   15 2
    33   14   16 am
    34   16   17 1
    35   16   19 1
    36   17   18 2
    37   17   42 1
    38   19   20 1
    39   19   43 1
    40   19   44 1
    41   20   25 ar
    42   20   21 ar
    43   21   22 ar
    44   21   45 1
    45   22   23 ar
    46   22   46 1
    47   23   24 ar
    48   23   47 1
    49   24   25 ar
    50   24   48 1
    51   25   26 1
    52   26   27 1
    53   27   49 1
    54   27   50 1
    55   27   51 1
    56   28   52 1
    57   28   53 1
    58   54   55 1
    59   54   56 1
@<TRIPOS>MOLECULE
ZINC28288901
   56    59     0     0     0
SMALL
USER_CHARGES
4-oxo-N-[(2R)-2-(1-piperidyl)-2-(p-tolyl)ethyl]chromene-2-carboxamide
@<TRIPOS>ATOM
      1 C1         -0.8612   -4.7334    2.8715 C.3       1 <0>        -0.1345
      2 C2         -0.6599   -3.2445    2.7544 C.ar      1 <0>        -0.0432
      3 C3          0.5240   -2.6715    3.1798 C.ar      1 <0>        -0.1122
      4 C4          0.7088   -1.3058    3.0720 C.ar      1 <0>        -0.0783
      5 C5         -0.2904   -0.5131    2.5391 C.ar      1 <0>        -0.1525
      6 C6         -1.4765   -1.0853    2.1190 C.ar      1 <0>        -0.1077
      7 C7         -1.6593   -2.4517    2.2219 C.ar      1 <0>        -0.1123
      8 C8         -0.0891    0.9758    2.4220 C.3       1 <0>         0.0807
      9 H1          0.9147    1.2444    2.7829 H         1 <0>         0.1509
     10 C9         -1.1716    1.7014    3.2236 C.3       1 <0>         0.1007
     11 N1         -1.0550    3.1455    3.0060 N.am      1 <0>        -0.7489
     12 C10        -1.9614    3.9838    3.5465 C.2       1 <0>         0.5888
     13 O1         -2.8752    3.5419    4.2141 O.2       1 <0>        -0.4778
     14 C11        -1.8434    5.4447    3.3264 C.2       1 <0>         0.0748
     15 C12        -2.7686    6.2634    3.8816 C.2       1 <0>        -0.2032
     16 C13        -2.6529    7.7134    3.6640 C.2       1 <0>         0.4141
     17 O2         -3.4560    8.4964    4.1396 O.2       1 <0>        -0.4299
     18 C14        -1.5172    8.1743    2.8426 C.ar      1 <0>        -0.2240
     19 C15        -1.3175    9.5284    2.5755 C.ar      1 <0>        -0.0247
     20 C16        -0.2532    9.9176    1.8104 C.ar      1 <0>        -0.1414
     21 C17         0.6265    8.9737    1.2989 C.ar      1 <0>        -0.0484
     22 C18         0.4447    7.6313    1.5515 C.ar      1 <0>        -0.1427
     23 C19        -0.6313    7.2123    2.3280 C.ar      1 <0>         0.1504
     24 O3         -0.8216    5.9049    2.5898 O.3       1 <0>        -0.2342
     25 N2         -0.1767    1.3722    1.0102 N.4       1 <0>        -0.3945
     26 C20        -1.5585    1.7062    0.6422 C.3       1 <0>        -0.0342
     27 C21        -1.5892    2.2519   -0.7873 C.3       1 <0>        -0.1424
     28 C22        -1.0275    1.1962   -1.7436 C.3       1 <0>        -0.1401
     29 C23         0.3946    0.8305   -1.3093 C.3       1 <0>        -0.1443
     30 C24         0.3677    0.3260    0.1353 C.3       1 <0>        -0.0051
     31 H2          0.0356   -5.1909    3.3148 H         1 <0>         0.0754
     32 H3         -1.0346   -5.1596    1.8724 H         1 <0>         0.0814
     33 H4         -1.7315   -4.9364    3.5128 H         1 <0>         0.0825
     34 H5          1.3047   -3.2909    3.5961 H         1 <0>         0.1374
     35 H6          1.6338   -0.8582    3.4044 H         1 <0>         0.1343
     36 H7         -2.2589   -0.4654    1.7067 H         1 <0>         0.1255
     37 H8         -2.5844   -2.8993    1.8899 H         1 <0>         0.1357
     38 H9         -2.1636    1.3597    2.8931 H         1 <0>         0.1039
     39 H10        -1.0455    1.4805    4.2938 H         1 <0>         0.1184
     40 H11        -0.2277    3.5456    2.4015 H         1 <0>         0.4274
     41 H12        -3.5767    5.8588    4.4729 H         1 <0>         0.1767
     42 H13        -1.9995   10.2661    2.9719 H         1 <0>         0.1465
     43 H14        -0.0965   10.9657    1.6023 H         1 <0>         0.1423
     44 H15         1.4628    9.2950    0.6958 H         1 <0>         0.1457
     45 H16         1.1355    6.9061    1.1474 H         1 <0>         0.1435
     46 H17        -2.1827    0.8025    0.7028 H         1 <0>         0.1278
     47 H18        -1.9482    2.4680    1.3335 H         1 <0>         0.1407
     48 H19        -2.6264    2.4881   -1.0674 H         1 <0>         0.1110
     49 H20        -0.9771    3.1640   -0.8448 H         1 <0>         0.0888
     50 H21        -1.6645    0.2999   -1.7153 H         1 <0>         0.0801
     51 H22        -1.0090    1.6007   -2.7664 H         1 <0>         0.0946
     52 H23         0.7877    0.0418   -1.9677 H         1 <0>         0.1116
     53 H24         1.0388    1.7196   -1.3771 H         1 <0>         0.0879
     54 H25         1.3901    0.0760    0.4551 H         1 <0>         0.1301
     55 H26        -0.2659   -0.5710    0.1983 H         1 <0>         0.1308
     56 H27         0.4347    2.2762    0.8725 H         1 <0>         0.4363
@<TRIPOS>BOND
     1    1    2 1
     2    1   31 1
     3    1   32 1
     4    1   33 1
     5    2    7 ar
     6    2    3 ar
     7    3    4 ar
     8    3   34 1
     9    4    5 ar
    10    4   35 1
    11    5    6 ar
    12    5    8 1
    13    6    7 ar
    14    6   36 1
    15    7   37 1
    16    8    9 1
    17    8   10 1
    18    8   25 1
    19   10   11 1
    20   10   38 1
    21   10   39 1
    22   11   12 am
    23   11   40 1
    24   12   13 2
    25   12   14 1
    26   14   24 1
    27   14   15 2
    28   15   16 1
    29   15   41 1
    30   16   17 2
    31   16   18 1
    32   18   23 ar
    33   18   19 ar
    34   19   20 ar
    35   19   42 1
    36   20   21 ar
    37   20   43 1
    38   21   22 ar
    39   21   44 1
    40   22   23 ar
    41   22   45 1
    42   23   24 1
    43   25   30 1
    44   25   26 1
    45   25   56 1
    46   26   27 1
    47   26   46 1
    48   26   47 1
    49   27   28 1
    50   27   48 1
    51   27   49 1
    52   28   29 1
    53   28   50 1
    54   28   51 1
    55   29   30 1
    56   29   52 1
    57   29   53 1
    58   30   54 1
    59   30   55 1
@<TRIPOS>MOLECULE
ZINC46425755
   61    63     0     0     0
SMALL
USER_CHARGES

@<TRIPOS>ATOM
      1 C1          0.0778    1.6121    0.0052 C.3       1 <0>        -0.1705
      2 C2          0.0757    0.0823   -0.0140 C.3       1 <0>        -0.1129
      3 H1         -0.9523   -0.2803   -0.0181 H         1 <0>         0.1191
      4 C3          0.7980   -0.4144   -1.2697 C.3       1 <0>        -0.1301
      5 C4          2.2610    0.0351   -1.2164 C.3       1 <0>        -0.1123
      6 H2          2.3079    1.1240   -1.2276 H         1 <0>         0.0950
      7 C5          2.9040   -0.4908    0.0687 C.3       1 <0>        -0.0056
      8 N1          2.1847    0.0403    1.2328 N.4       1 <0>        -0.3833
      9 C6          0.7986   -0.4454    1.2271 C.3       1 <0>        -0.0089
     10 C7          2.8523   -0.4041    2.4636 C.3       1 <0>        -0.0062
     11 C8          2.1798    0.2489    3.6728 C.3       1 <0>        -0.1630
     12 C9          2.8751   -0.2139    4.9547 C.3       1 <0>         0.1427
     13 N2          2.2311    0.4113    6.1126 N.am      1 <0>        -0.7520
     14 C10         2.6789    0.1483    7.3563 C.2       1 <0>         0.7104
     15 O1          3.5567   -0.6759    7.5247 O.2       1 <0>        -0.5788
     16 N3          2.1536    0.7989    8.4132 N.am      1 <0>        -0.6242
     17 C11         1.0092    1.7048    8.2407 C.3       1 <0>         0.0968
     18 C12        -0.1153    1.2590    9.1835 C.3       1 <0>         0.1077
     19 N4          0.4457    1.0749   10.5294 N.pl3     1 <0>        -0.6296
     20 C13         1.5900    0.1690   10.7019 C.3       1 <0>         0.1060
     21 C14         2.7110    0.6105    9.7600 C.3       1 <0>         0.1119
     22 C15        -0.0993    1.7499   11.6259 C.ar      1 <0>         0.2053
     23 C16         0.5135    1.6652   12.8693 C.ar      1 <0>        -0.1683
     24 C17        -0.0263    2.3332   13.9510 C.ar      1 <0>        -0.1008
     25 C18        -1.1776    3.0868   13.7964 C.ar      1 <0>         0.0433
     26 C19        -1.7903    3.1726   12.5577 C.ar      1 <0>        -0.1025
     27 C20        -1.2510    2.5106   11.4720 C.ar      1 <0>        -0.1711
     28 F1         -1.7042    3.7390   14.8559 F         1 <0>        -0.1427
     29 C21         3.0109   -0.5211   -2.4286 C.3       1 <0>        -0.1519
     30 H3          1.1060    1.9740    0.0093 H         1 <0>         0.0511
     31 H4         -0.4359    1.9874   -0.8798 H         1 <0>         0.0851
     32 H5         -0.4351    1.9649    0.9000 H         1 <0>         0.0724
     33 H6          0.7523   -1.5027   -1.3101 H         1 <0>         0.0836
     34 H7          0.3200    0.0048   -2.1550 H         1 <0>         0.0951
     35 H8          2.8568   -1.5798    0.0788 H         1 <0>         0.1305
     36 H9          3.9458   -0.1728    0.1097 H         1 <0>         0.1312
     37 H10         0.2861   -0.0938    2.1225 H         1 <0>         0.1308
     38 H11         0.7963   -1.5353    1.2125 H         1 <0>         0.1309
     39 H12         2.7764   -1.4882    2.5470 H         1 <0>         0.1354
     40 H13         3.9028   -0.1148    2.4319 H         1 <0>         0.1365
     41 H14         2.2557    1.3330    3.5893 H         1 <0>         0.0940
     42 H15         1.1293   -0.0404    3.7045 H         1 <0>         0.0943
     43 H16         2.7991   -1.2981    5.0382 H         1 <0>         0.0785
     44 H17         3.9255    0.0753    4.9230 H         1 <0>         0.0773
     45 H18         1.4824    1.0145    5.9841 H         1 <0>         0.3968
     46 H19         1.3092    2.7238    8.4852 H         1 <0>         0.0798
     47 H20         0.6604    1.6611    7.2089 H         1 <0>         0.0818
     48 H21        -0.8926    2.0225    9.2125 H         1 <0>         0.0983
     49 H22        -0.5366    0.3176    8.8309 H         1 <0>         0.0676
     50 H23         1.9388    0.2127   11.7337 H         1 <0>         0.1006
     51 H24         1.2900   -0.8500   10.4574 H         1 <0>         0.0700
     52 H25         3.4857   -0.1557    9.7313 H         1 <0>         0.1075
     53 H26         3.1349    1.5498   10.1151 H         1 <0>         0.0754
     54 H27         1.4113    1.0773   12.9904 H         1 <0>         0.1336
     55 H28         0.4497    2.2674   14.9182 H         1 <0>         0.1371
     56 H29        -2.6884    3.7607   12.4394 H         1 <0>         0.1359
     57 H30        -1.7266    2.5814   10.5050 H         1 <0>         0.1308
     58 H31         2.5498   -0.1486   -3.3433 H         1 <0>         0.0778
     59 H32         4.0520   -0.2009   -2.3901 H         1 <0>         0.0687
     60 H33         2.9649   -1.6101   -2.4159 H         1 <0>         0.0677
     61 H34         2.1867    1.0486    1.1967 H         1 <0>         0.4208
@<TRIPOS>BOND
     1    1    2 1
     2    1   30 1
     3    1   31 1
     4    1   32 1
     5    2    3 1
     6    2    9 1
     7    2    4 1
     8    4    5 1
     9    4   33 1
    10    4   34 1
    11    5    6 1
    12    5    7 1
    13    5   29 1
    14    7    8 1
    15    7   35 1
    16    7   36 1
    17    8    9 1
    18    8   10 1
    19    8   61 1
    20    9   37 1
    21    9   38 1
    22   10   11 1
    23   10   39 1
    24   10   40 1
    25   11   12 1
    26   11   41 1
    27   11   42 1
    28   12   13 1
    29   12   43 1
    30   12   44 1
    31   13   14 am
    32   13   45 1
    33   14   15 2
    34   14   16 am
    35   16   21 1
    36   16   17 1
    37   17   18 1
    38   17   46 1
    39   17   47 1
    40   18   19 1
    41   18   48 1
    42   18   49 1
    43   19   20 1
    44   19   22 1
    45   20   21 1
    46   20   50 1
    47   20   51 1
    48   21   52 1
    49   21   53 1
    50   22   27 ar
    51   22   23 ar
    52   23   24 ar
    53   23   54 1
    54   24   25 ar
    55   24   55 1
    56   25   26 ar
    57   25   28 1
    58   26   27 ar
    59   26   56 1
    60   27   57 1
    61   29   58 1
    62   29   59 1
    63   29   60 1
@<TRIPOS>MOLECULE
ZINC63504812
   63    66     0     0     0
SMALL
USER_CHARGES

@<TRIPOS>ATOM
      1 C1         -1.3003   -0.1634    2.6947 C.3       1 <0>        -0.1839
      2 C2         -0.4705    0.5175    1.6043 C.3       1 <0>         0.0910
      3 N1          0.5897   -0.3902    1.1591 N.am      1 <0>        -0.5882
      4 C3          0.3332   -1.3118    0.2097 C.2       1 <0>         0.5092
      5 O1          1.2024   -2.0833   -0.1370 O.2       1 <0>        -0.5038
      6 C4         -1.0336   -1.3835   -0.4210 C.3       1 <0>        -0.1206
      7 C5         -1.0574   -2.4902   -1.4436 C.2       1 <0>         0.0832
      8 C6         -1.4796   -3.7615   -1.2563 C.ar      1 <0>        -0.1581
      9 C7         -2.0210   -4.4676   -0.0890 C.ar      1 <0>        -0.0126
     10 C8         -2.3622   -5.7706   -0.2107 C.ar      1 <0>        -0.1490
     11 C9         -2.2116   -6.4621   -1.4206 C.ar      1 <0>         0.0540
     12 C10        -1.7214   -5.8814   -2.5362 C.ar      1 <0>        -0.2089
     13 C11        -1.3309   -4.5140   -2.5225 C.ar      1 <0>         0.3308
     14 N2         -0.8361   -3.7381   -3.4562 N.pl3     1 <0>        -0.5818
     15 C12        -0.6203   -2.4024   -2.8888 C.3       1 <0>         0.0638
     16 C13         1.9288   -0.2961    1.7458 C.3       1 <0>         0.1698
     17 C14         2.7455   -1.5287    1.3529 C.3       1 <0>        -0.1111
     18 C15         2.0490   -2.7885    1.8713 C.3       1 <0>        -0.1050
     19 C16         1.9342   -2.7173    3.3953 C.3       1 <0>        -0.1319
     20 C17         1.1174   -1.4847    3.7882 C.3       1 <0>        -0.1310
     21 C18         1.8140   -0.2249    3.2699 C.3       1 <0>        -0.1136
     22 C19         2.6149    0.9448    1.2353 C.2       1 <0>         0.5079
     23 O2          3.3229    1.5943    1.9754 O.2       1 <0>        -0.4982
     24 N3          2.4416    1.3327   -0.0438 N.am      1 <0>        -0.6669
     25 C20         3.1571    2.4251   -0.5466 C.ar      1 <0>         0.1400
     26 C21         4.4684    2.6430   -0.1440 C.ar      1 <0>        -0.1222
     27 C22         5.1717    3.7220   -0.6420 C.ar      1 <0>        -0.0931
     28 C23         4.5716    4.5854   -1.5404 C.ar      1 <0>        -0.1286
     29 C24         3.2662    4.3715   -1.9428 C.ar      1 <0>        -0.0655
     30 C25         2.5595    3.2903   -1.4534 C.ar      1 <0>        -0.1455
     31 C26         2.6161    5.3151   -2.9215 C.3       1 <0>        -0.1168
     32 H1         -0.7720   -0.1002    3.6460 H         1 <0>         0.0791
     33 H2         -2.2656    0.3353    2.7814 H         1 <0>         0.0769
     34 H3         -1.4543   -1.2104    2.4335 H         1 <0>         0.0612
     35 H4         -1.1139    0.7664    0.7604 H         1 <0>         0.0870
     36 H5         -0.0250    1.4290    2.0028 H         1 <0>         0.0934
     37 H6         -1.7789   -1.5839    0.3487 H         1 <0>         0.1381
     38 H7         -1.2596   -0.4346   -0.9073 H         1 <0>         0.1399
     39 H8         -2.1447   -3.9544    0.8532 H         1 <0>         0.1574
     40 H9         -2.7608   -6.2922    0.6470 H         1 <0>         0.1577
     41 H10        -2.4994   -7.5022   -1.4618 H         1 <0>         0.1611
     42 H11        -1.6248   -6.4585   -3.4440 H         1 <0>         0.1608
     43 H12        -1.2225   -1.6648   -3.4193 H         1 <0>         0.1732
     44 H13         0.4356   -2.1381   -2.9466 H         1 <0>         0.1759
     45 H14         2.8273   -1.5794    0.2672 H         1 <0>         0.1047
     46 H15         3.7418   -1.4587    1.7895 H         1 <0>         0.0664
     47 H16         1.0527   -2.8585    1.4347 H         1 <0>         0.0750
     48 H17         2.6308   -3.6667    1.5914 H         1 <0>         0.0622
     49 H18         1.4379   -3.6148    3.7646 H         1 <0>         0.0627
     50 H19         2.9305   -2.6473    3.8318 H         1 <0>         0.0637
     51 H20         0.1211   -1.5547    3.3517 H         1 <0>         0.0767
     52 H21         1.0356   -1.4340    4.8740 H         1 <0>         0.0707
     53 H22         2.8103   -0.1549    3.7064 H         1 <0>         0.0925
     54 H23         1.2321    0.6533    3.5498 H         1 <0>         0.0745
     55 H24         1.8210    0.8547   -0.6158 H         1 <0>         0.4023
     56 H25         4.9373    1.9695    0.5581 H         1 <0>         0.1297
     57 H26         6.1914    3.8920   -0.3293 H         1 <0>         0.1294
     58 H27         5.1236    5.4288   -1.9282 H         1 <0>         0.1269
     59 H28         1.5416    3.1207   -1.7721 H         1 <0>         0.1209
     60 H29         2.7947    4.9642   -3.9379 H         1 <0>         0.0729
     61 H30         1.5431    5.3516   -2.7330 H         1 <0>         0.0662
     62 H31         3.0401    6.3121   -2.8015 H         1 <0>         0.0716
     63 H32        -0.6478   -4.0020   -4.3705 H         1 <0>         0.4560
@<TRIPOS>BOND
     1    1    2 1
     2    1   32 1
     3    1   33 1
     4    1   34 1
     5    2    3 1
     6    2   35 1
     7    2   36 1
     8    3    4 am
     9    3   16 1
    10    4    5 2
    11    4    6 1
    12    6    7 1
    13    6   37 1
    14    6   38 1
    15    7   15 1
    16    7    8 2
    17    8   13 ar
    18    8    9 ar
    19    9   10 ar
    20    9   39 1
    21   10   11 ar
    22   10   40 1
    23   11   12 ar
    24   11   41 1
    25   12   13 ar
    26   12   42 1
    27   13   14 2
    28   14   15 1
    29   14   63 1
    30   15   43 1
    31   15   44 1
    32   16   21 1
    33   16   17 1
    34   16   22 1
    35   17   18 1
    36   17   45 1
    37   17   46 1
    38   18   19 1
    39   18   47 1
    40   18   48 1
    41   19   20 1
    42   19   49 1
    43   19   50 1
    44   20   21 1
    45   20   51 1
    46   20   52 1
    47   21   53 1
    48   21   54 1
    49   22   23 2
    50   22   24 am
    51   24   25 1
    52   24   55 1
    53   25   30 ar
    54   25   26 ar
    55   26   27 ar
    56   26   56 1
    57   27   28 ar
    58   27   57 1
    59   28   29 ar
    60   28   58 1
    61   29   30 ar
    62   29   31 1
    63   30   59 1
    64   31   60 1
    65   31   61 1
    66   31   62 1
@<TRIPOS>MOLECULE
ZINC66344744
   59    62     0     0     0
SMALL
USER_CHARGES

@<TRIPOS>ATOM
      1 C1         -0.0241    1.3890    0.0309 C.ar      1 <0>        -0.1652
      2 C2          1.1624    2.0962    0.0252 C.ar      1 <0>        -0.1026
      3 C3          2.3715    1.4217    0.0063 C.ar      1 <0>         0.0425
      4 C4          2.3943    0.0374   -0.0072 C.ar      1 <0>        -0.1025
      5 C5          1.2103   -0.6739   -0.0020 C.ar      1 <0>        -0.1663
      6 C6         -0.0036    0.0004    0.0178 C.ar      1 <0>         0.2228
      7 N1         -1.2034   -0.7175    0.0241 N.pl3     1 <0>        -0.6368
      8 C7         -2.5521   -0.1324    0.0377 C.3       1 <0>         0.1129
      9 C8         -3.5591   -1.3015    0.0121 C.3       1 <0>        -0.1263
     10 C9         -2.7251   -2.4655   -0.5854 C.3       1 <0>        -0.1160
     11 H1         -2.6999   -2.4096   -1.6737 H         1 <0>         0.0933
     12 C10        -1.3256   -2.1867    0.0118 C.3       1 <0>         0.1228
     13 C11        -3.2631   -3.8204   -0.1211 C.3       1 <0>         0.1452
     14 N2         -4.5984   -4.0346   -0.6844 N.am      1 <0>        -0.7365
     15 C12        -5.2718   -5.1691   -0.4091 C.2       1 <0>         0.7118
     16 O1         -4.7369   -6.0535    0.2314 O.2       1 <0>        -0.5614
     17 N3         -6.5382   -5.3234   -0.8437 N.am      1 <0>        -0.6461
     18 C13        -7.1644   -4.3217   -1.7203 C.3       1 <0>         0.0889
     19 C14        -7.7730   -5.0443   -2.9266 C.3       1 <0>        -0.0222
     20 N4         -8.6859   -6.0944   -2.4575 N.4       1 <0>        -0.3799
     21 C15        -7.9339   -7.1186   -1.7214 C.3       1 <0>        -0.0257
     22 C16        -7.3314   -6.5015   -0.4600 C.3       1 <0>         0.1074
     23 C17        -9.3519   -6.7132   -3.6114 C.3       1 <0>         0.0194
     24 C18       -10.2129   -5.6666   -4.3484 C.3       1 <0>        -0.1422
     25 C19       -11.4670   -6.4559   -4.7992 C.3       1 <0>        -0.1247
     26 C20       -11.7244   -7.4024   -3.6005 C.3       1 <0>        -0.1305
     27 C21       -10.3130   -7.8168   -3.1359 C.3       1 <0>        -0.1451
     28 F1          3.5308    2.1155    0.0007 F         1 <0>        -0.1428
     29 H2         -0.9669    1.9154    0.0501 H         1 <0>         0.1285
     30 H3          1.1469    3.1760    0.0350 H         1 <0>         0.1365
     31 H4          3.3385   -0.4867   -0.0223 H         1 <0>         0.1367
     32 H5          1.2285   -1.7537   -0.0133 H         1 <0>         0.1292
     33 H6         -2.6913    0.4571    0.9439 H         1 <0>         0.0659
     34 H7         -2.6920    0.4967   -0.8414 H         1 <0>         0.0638
     35 H8         -3.8933   -1.5447    1.0207 H         1 <0>         0.0814
     36 H9         -4.4076   -1.0657   -0.6302 H         1 <0>         0.0793
     37 H10        -0.5504   -2.6266   -0.6156 H         1 <0>         0.0780
     38 H11        -1.2631   -2.5810    1.0260 H         1 <0>         0.0687
     39 H12        -2.5947   -4.6121   -0.4595 H         1 <0>         0.0788
     40 H13        -3.3213   -3.8345    0.9673 H         1 <0>         0.0778
     41 H14        -4.9978   -3.3599   -1.2555 H         1 <0>         0.3954
     42 H15        -7.9481   -3.7961   -1.1746 H         1 <0>         0.0986
     43 H16        -6.4114   -3.6110   -2.0608 H         1 <0>         0.1199
     44 H17        -8.3243   -4.3300   -3.5381 H         1 <0>         0.1442
     45 H18        -6.9771   -5.4934   -3.5207 H         1 <0>         0.1343
     46 H19        -8.6038   -7.9327   -1.4449 H         1 <0>         0.1464
     47 H20        -7.1332   -7.5049   -2.3520 H         1 <0>         0.1345
     48 H21        -6.6887   -7.2312    0.0324 H         1 <0>         0.1396
     49 H22        -8.1322   -6.1998    0.2152 H         1 <0>         0.0937
     50 H23        -8.6092   -7.1319   -4.2905 H         1 <0>         0.1402
     51 H24       -10.4932   -4.8588   -3.6723 H         1 <0>         0.0870
     52 H25        -9.6783   -5.2734   -5.2131 H         1 <0>         0.0980
     53 H26       -12.3124   -5.7846   -4.9498 H         1 <0>         0.0891
     54 H27       -11.2595   -7.0265   -5.7044 H         1 <0>         0.0838
     55 H28       -12.2488   -6.8749   -2.8037 H         1 <0>         0.0780
     56 H29       -12.2929   -8.2760   -3.9195 H         1 <0>         0.0881
     57 H30       -10.0372   -8.7710   -3.5849 H         1 <0>         0.1038
     58 H31       -10.2852   -7.8933   -2.0489 H         1 <0>         0.0859
     59 H32        -9.3808   -5.6873   -1.8496 H         1 <0>         0.4211
@<TRIPOS>BOND
     1    1    6 ar
     2    1    2 ar
     3    1   29 1
     4    2    3 ar
     5    2   30 1
     6    3    4 ar
     7    3   28 1
     8    4    5 ar
     9    4   31 1
    10    5    6 ar
    11    5   32 1
    12    6    7 1
    13    7   12 1
    14    7    8 1
    15    8    9 1
    16    8   33 1
    17    8   34 1
    18    9   10 1
    19    9   35 1
    20    9   36 1
    21   10   11 1
    22   10   12 1
    23   10   13 1
    24   12   37 1
    25   12   38 1
    26   13   14 1
    27   13   39 1
    28   13   40 1
    29   14   15 am
    30   14   41 1
    31   15   16 2
    32   15   17 am
    33   17   22 1
    34   17   18 1
    35   18   19 1
    36   18   42 1
    37   18   43 1
    38   19   20 1
    39   19   44 1
    40   19   45 1
    41   20   21 1
    42   20   23 1
    43   20   59 1
    44   21   22 1
    45   21   46 1
    46   21   47 1
    47   22   48 1
    48   22   49 1
    49   23   27 1
    50   23   24 1
    51   23   50 1
    52   24   25 1
    53   24   51 1
    54   24   52 1
    55   25   26 1
    56   25   53 1
    57   25   54 1
    58   26   27 1
    59   26   55 1
    60   26   56 1
    61   27   57 1
    62   27   58 1
@<TRIPOS>MOLECULE
ZINC05077593
   38    39     0     0     0
SMALL
USER_CHARGES
N-[(2,4-dichloro-6-methyl-phenyl)methyl]-2-methyl-5-nitro-benzenesulfonamide
@<TRIPOS>ATOM
      1 C1          2.1457    8.3702   -2.8489 C.3       1 <0>        -0.1566
      2 C2          1.8435    9.2219   -1.6429 C.ar      1 <0>         0.0719
      3 C3          2.8054   10.0812   -1.1450 C.ar      1 <0>        -0.1373
      4 C4          2.5303   10.8579   -0.0352 C.ar      1 <0>         0.0028
      5 C5          1.2913   10.7799    0.5732 C.ar      1 <0>        -0.0706
      6 C6          0.3278    9.9251    0.0720 C.ar      1 <0>         0.0489
      7 C7          0.6031    9.1478   -1.0378 C.ar      1 <0>        -0.6893
      8 S1         -0.6250    8.0576   -1.6765 S.o2      1 <0>         2.6986
      9 O1         -0.6877    8.2920   -3.0766 O.2       1 <0>        -0.9384
     10 O2         -1.7601    8.1848   -0.8312 O.2       1 <0>        -0.9409
     11 N1         -0.0591    6.5137   -1.4800 N.pl3     1 <0>        -1.1086
     12 C8          0.1627    5.9807   -0.1335 C.3       1 <0>         0.1498
     13 C9          0.3019    4.4818   -0.2033 C.ar      1 <0>        -0.0962
     14 C10        -0.8165    3.6777   -0.0862 C.ar      1 <0>        -0.0338
     15 C11        -0.6903    2.3032   -0.1548 C.ar      1 <0>        -0.1080
     16 C12         0.5573    1.7306   -0.3303 C.ar      1 <0>        -0.0099
     17 C13         1.6766    2.5346   -0.4475 C.ar      1 <0>        -0.1111
     18 C14         1.5489    3.9107   -0.3840 C.ar      1 <0>        -0.0044
     19 Cl1         2.9532    4.9207   -0.5315 Cl        1 <0>        -0.0498
     20 Cl2         0.7164    0.0038   -0.4105 Cl        1 <0>        -0.0485
     21 C15        -2.1747    4.3005    0.1102 C.3       1 <0>        -0.1277
     22 N2          0.9967   11.6117    1.7616 N.pl3     1 <0>         0.0266
     23 O3         -0.0947   11.5427    2.2979 O.2       1 <0>        -0.1486
     24 O4          1.8458   12.3650    2.2033 O.3       1 <0>        -0.1519
     25 H1          1.7853    8.8714   -3.7472 H         1 <0>         0.1135
     26 H2          3.2222    8.2173   -2.9252 H         1 <0>         0.0951
     27 H3          1.6481    7.4058   -2.7465 H         1 <0>         0.0784
     28 H4          3.7731   10.1424   -1.6205 H         1 <0>         0.1592
     29 H5          3.2832   11.5259    0.3564 H         1 <0>         0.1639
     30 H6         -0.6400    9.8639    0.5475 H         1 <0>         0.1744
     31 H7          0.1254    5.9623   -2.2564 H         1 <0>         0.4245
     32 H8         -0.6839    6.2378    0.5031 H         1 <0>         0.1034
     33 H9          1.0737    6.4113    0.2821 H         1 <0>         0.0822
     34 H10        -1.5649    1.6757   -0.0674 H         1 <0>         0.1453
     35 H11         2.6499    2.0883   -0.5882 H         1 <0>         0.1477
     36 H12        -2.6336    4.4851   -0.8611 H         1 <0>         0.0843
     37 H13        -2.8049    3.6235    0.6869 H         1 <0>         0.0788
     38 H14        -2.0680    5.2432    0.6467 H         1 <0>         0.0819
@<TRIPOS>BOND
     1    1    2 1
     2    1   25 1
     3    1   26 1
     4    1   27 1
     5    2    7 ar
     6    2    3 ar
     7    3    4 ar
     8    3   28 1
     9    4    5 ar
    10    4   29 1
    11    5    6 ar
    12    5   22 1
    13    6    7 ar
    14    6   30 1
    15    7    8 1
    16    8    9 2
    17    8   10 2
    18    8   11 1
    19   11   12 1
    20   11   31 1
    21   12   13 1
    22   12   32 1
    23   12   33 1
    24   13   18 ar
    25   13   14 ar
    26   14   15 ar
    27   14   21 1
    28   15   16 ar
    29   15   34 1
    30   16   17 ar
    31   16   20 1
    32   17   18 ar
    33   17   35 1
    34   18   19 1
    35   21   36 1
    36   21   37 1
    37   21   38 1
    38   22   23 2
    39   22   24 1
@<TRIPOS>MOLECULE
ZINC14128697
   56    58     0     0     0
SMALL
USER_CHARGES
(2R)-N-[(1S,2R,3S)-2,3-dimethylcyclohexyl]-2-[1-(2,4-dimethylphenyl)tetrazol-5-yl]sulfanyl-propanamide
@<TRIPOS>ATOM
      1 C1          3.5650    6.8998   -0.2698 C.3       1 <0>        -0.1209
      2 C2          2.8879    5.5610   -0.1278 C.ar      1 <0>        -0.0571
      3 C3          3.2341    4.7195    0.9137 C.ar      1 <0>        -0.1079
      4 C4          2.6119    3.4941    1.0492 C.ar      1 <0>        -0.0927
      5 C5          1.6447    3.1031    0.1329 C.ar      1 <0>         0.0996
      6 C6          1.2990    3.9500   -0.9111 C.ar      1 <0>        -0.0463
      7 C7          1.9214    5.1766   -1.0387 C.ar      1 <0>        -0.1098
      8 C8          0.2461    3.5315   -1.9047 C.3       1 <0>        -0.1168
      9 N1          1.0143    1.8576    0.2653 N.pl3     1 <0>        -0.3076
     10 C9          1.6040    0.6532    0.4724 C.2       1 <0>         0.2044
     11 N2          0.6416   -0.2419    0.5330 N.2       1 <0>        -0.3304
     12 N3         -0.5038    0.3177    0.3786 N.2       1 <0>        -0.0286
     13 N4         -0.3644    1.5881    0.2109 N.2       1 <0>        -0.0668
     14 S1          3.3319    0.3459    0.6296 S.3       1 <0>         0.1198
     15 C10         3.3109   -1.4469    0.8780 C.3       1 <0>        -0.1225
     16 H1          2.7737   -1.9212    0.0567 H         1 <0>         0.1269
     17 C11         2.6113   -1.7706    2.1995 C.3       1 <0>        -0.1462
     18 C12         4.7255   -1.9650    0.9184 C.2       1 <0>         0.5387
     19 O1          5.6320   -1.2283    1.2448 O.2       1 <0>        -0.5215
     20 N5          4.9833   -3.2469    0.5919 N.am      1 <0>        -0.7089
     21 C13         6.3584   -3.7505    0.6313 C.3       1 <0>         0.1520
     22 H2          7.0439   -2.9597    0.3267 H         1 <0>         0.0919
     23 C14         6.6969   -4.1986    2.0545 C.3       1 <0>        -0.1321
     24 C15         5.7348   -5.3087    2.4822 C.3       1 <0>        -0.1189
     25 C16         5.8704   -6.4967    1.5277 C.3       1 <0>        -0.1168
     26 C17         5.5319   -6.0487    0.1044 C.3       1 <0>        -0.0876
     27 H3          4.5087   -5.6740    0.0751 H         1 <0>         0.0665
     28 C18         6.4940   -4.9386   -0.3232 C.3       1 <0>        -0.0941
     29 H4          7.5171   -5.3133   -0.2939 H         1 <0>         0.0881
     30 C19         6.1555   -4.4905   -1.7464 C.3       1 <0>        -0.1516
     31 C20         5.6674   -7.2368   -0.8501 C.3       1 <0>        -0.1509
     32 H5          3.0031    7.6517    0.2842 H         1 <0>         0.0785
     33 H6          4.5784    6.8383    0.1268 H         1 <0>         0.0735
     34 H7          3.6032    7.1777   -1.3231 H         1 <0>         0.0725
     35 H8          3.9891    5.0226    1.6240 H         1 <0>         0.1403
     36 H9          2.8797    2.8391    1.8651 H         1 <0>         0.1373
     37 H10         1.6531    5.8358   -1.8510 H         1 <0>         0.1386
     38 H11        -0.7412    3.7753   -1.5123 H         1 <0>         0.0858
     39 H12         0.4037    4.0595   -2.8452 H         1 <0>         0.0761
     40 H13         0.3141    2.4571   -2.0754 H         1 <0>         0.0616
     41 H14         1.5881   -1.3958    2.1702 H         1 <0>         0.0891
     42 H15         2.5987   -2.8502    2.3491 H         1 <0>         0.0768
     43 H16         3.1485   -1.2962    3.0208 H         1 <0>         0.0738
     44 H17         4.2583   -3.8361    0.3309 H         1 <0>         0.4024
     45 H18         7.7201   -4.5733    2.0838 H         1 <0>         0.0741
     46 H19         6.6004   -3.3522    2.7345 H         1 <0>         0.0692
     47 H20         4.7117   -4.9340    2.4529 H         1 <0>         0.0608
     48 H21         5.9760   -5.6279    3.4961 H         1 <0>         0.0638
     49 H22         5.1849   -7.2876    1.8323 H         1 <0>         0.0641
     50 H23         6.8935   -6.8715    1.5569 H         1 <0>         0.0648
     51 H24         6.8409   -3.6997   -2.0511 H         1 <0>         0.0568
     52 H25         6.2520   -5.3369   -2.4264 H         1 <0>         0.0630
     53 H26         5.1323   -4.1158   -1.7757 H         1 <0>         0.0543
     54 H27         6.6906   -7.6115   -0.8208 H         1 <0>         0.0562
     55 H28         4.9820   -8.0276   -0.5454 H         1 <0>         0.0557
     56 H29         5.4262   -6.9176   -1.8640 H         1 <0>         0.0592
@<TRIPOS>BOND
     1    1    2 1
     2    1   32 1
     3    1   33 1
     4    1   34 1
     5    2    7 ar
     6    2    3 ar
     7    3    4 ar
     8    3   35 1
     9    4    5 ar
    10    4   36 1
    11    5    6 ar
    12    5    9 1
    13    6    7 ar
    14    6    8 1
    15    7   37 1
    16    8   38 1
    17    8   39 1
    18    8   40 1
    19    9   13 1
    20    9   10 1
    21   10   11 2
    22   10   14 1
    23   11   12 1
    24   12   13 2
    25   14   15 1
    26   15   16 1
    27   15   17 1
    28   15   18 1
    29   17   41 1
    30   17   42 1
    31   17   43 1
    32   18   19 2
    33   18   20 am
    34   20   21 1
    35   20   44 1
    36   21   22 1
    37   21   28 1
    38   21   23 1
    39   23   24 1
    40   23   45 1
    41   23   46 1
    42   24   25 1
    43   24   47 1
    44   24   48 1
    45   25   26 1
    46   25   49 1
    47   25   50 1
    48   26   27 1
    49   26   28 1
    50   26   31 1
    51   28   29 1
    52   28   30 1
    53   30   51 1
    54   30   52 1
    55   30   53 1
    56   31   54 1
    57   31   55 1
    58   31   56 1
@<TRIPOS>MOLECULE
ZINC35553711
   37    40     0     0     0
SMALL
USER_CHARGES

@<TRIPOS>ATOM
      1 C1         -0.0565    1.3469    0.1679 C.ar      1 <0>        -0.1117
      2 C2          1.1122    2.0964    0.1658 C.ar      1 <0>        -0.0827
      3 C3          2.3328    1.4483    0.1365 C.ar      1 <0>        -0.0701
      4 C4          2.3678    0.0756    0.1100 C.ar      1 <0>        -0.1389
      5 C5          1.1943   -0.7168    0.1114 C.ar      1 <0>         0.0764
      6 C6         -0.0338   -0.0119    0.1419 C.ar      1 <0>        -0.0520
      7 N1          1.3865   -2.0433    0.0832 N.2       1 <0>        -0.4843
      8 C7          2.5863   -2.5867    0.0557 C.2       1 <0>         0.2144
      9 S1          3.6519   -1.1514    0.0682 S.3       1 <0>         0.0400
     10 C8          2.9551   -4.0112    0.0236 C.2       1 <0>        -0.0746
     11 C9          4.2187   -4.5842    0.0004 C.2       1 <0>        -0.1278
     12 C10         4.3215   -5.9457   -0.0276 C.2       1 <0>        -0.0625
     13 C11         3.1580   -6.7024   -0.0318 C.2       1 <0>        -0.2363
     14 S2          1.8915   -5.4450    0.0123 S.3       1 <0>         0.2162
     15 C12         3.0077   -8.1610   -0.0594 C.2       1 <0>         0.6146
     16 O1          3.9937   -8.8740   -0.0827 O.2       1 <0>        -0.4962
     17 N2          1.7776   -8.7118   -0.0588 N.am      1 <0>        -0.6640
     18 C13         1.6318  -10.0972   -0.1792 C.ar      1 <0>         0.2195
     19 C14         2.5632  -10.9483    0.4022 C.ar      1 <0>        -0.1264
     20 C15         2.4160  -12.3159    0.2818 C.ar      1 <0>        -0.0441
     21 C16         1.3429  -12.8387   -0.4168 C.ar      1 <0>        -0.1307
     22 C17         0.4144  -11.9944   -0.9971 C.ar      1 <0>        -0.0364
     23 C18         0.5526  -10.6255   -0.8755 C.ar      1 <0>        -0.0801
     24 N3         -0.4454   -9.7224   -1.4916 N.pl3     1 <0>         0.0420
     25 O2         -1.4351  -10.1810   -2.0131 O.2       1 <0>        -0.1408
     26 O3         -0.2710   -8.5262   -1.4732 O.3       1 <0>        -0.1809
     27 H1         -1.0082    1.8566    0.1954 H         1 <0>         0.1383
     28 H2          1.0680    3.1753    0.1865 H         1 <0>         0.1430
     29 H3          3.2512    2.0166    0.1340 H         1 <0>         0.1379
     30 H4         -0.9638   -0.5609    0.1448 H         1 <0>         0.1368
     31 H5          5.1038   -3.9653    0.0040 H         1 <0>         0.1538
     32 H6          5.2895   -6.4244   -0.0465 H         1 <0>         0.1583
     33 H7          0.9934   -8.1471    0.0252 H         1 <0>         0.4246
     34 H8          3.4016  -10.5407    0.9476 H         1 <0>         0.1639
     35 H9          3.1399  -12.9782    0.7333 H         1 <0>         0.1500
     36 H10         1.2302  -13.9088   -0.5095 H         1 <0>         0.1515
     37 H11        -0.4220  -12.4058   -1.5425 H         1 <0>         0.1595
@<TRIPOS>BOND
     1    1    6 ar
     2    1    2 ar
     3    1   27 1
     4    2    3 ar
     5    2   28 1
     6    3    4 ar
     7    3   29 1
     8    4    9 1
     9    4    5 ar
    10    5    6 ar
    11    5    7 1
    12    6   30 1
    13    7    8 2
    14    8    9 1
    15    8   10 1
    16   10   14 1
    17   10   11 2
    18   11   12 1
    19   11   31 1
    20   12   13 2
    21   12   32 1
    22   13   14 1
    23   13   15 1
    24   15   16 2
    25   15   17 am
    26   17   18 1
    27   17   33 1
    28   18   23 ar
    29   18   19 ar
    30   19   20 ar
    31   19   34 1
    32   20   21 ar
    33   20   35 1
    34   21   22 ar
    35   21   36 1
    36   22   23 ar
    37   22   37 1
    38   23   24 1
    39   24   25 2
    40   24   26 1
@<TRIPOS>MOLECULE
ZINC47057043
   53    56     0     0     0
SMALL
USER_CHARGES

@<TRIPOS>ATOM
      1 C1         -0.0187    1.5258    0.0104 C.3       1 <0>        -0.1500
      2 C2          0.0021   -0.0041    0.0020 C.3       1 <0>        -0.1119
      3 C3          0.7182   -0.4975   -1.2568 C.3       1 <0>        -0.0688
      4 C4          0.7386   -2.0043   -1.2651 C.2       1 <0>         0.1605
      5 C5          1.7142   -2.8099   -0.7179 C.2       1 <0>        -0.2675
      6 C6          1.3325   -4.1481   -0.9539 C.2       1 <0>         0.1040
      7 N1          0.1996   -4.1375   -1.6016 N.2       1 <0>        -0.3007
      8 N2         -0.1939   -2.8095   -1.8023 N.pl3     1 <0>        -0.3547
      9 C7         -1.4136   -2.3713   -2.4852 C.3       1 <0>         0.1703
     10 C8         -1.1333   -2.2048   -3.9565 C.ar      1 <0>        -0.1201
     11 C9         -0.6939   -0.9877   -4.4430 C.ar      1 <0>        -0.1024
     12 C10        -0.4368   -0.8349   -5.7926 C.ar      1 <0>        -0.1215
     13 C11        -0.6186   -1.8993   -6.6557 C.ar      1 <0>        -0.1078
     14 C12        -1.0571   -3.1166   -6.1691 C.ar      1 <0>        -0.1218
     15 C13        -1.3101   -3.2706   -4.8188 C.ar      1 <0>        -0.0889
     16 C14         2.9334   -2.3567   -0.0152 C.2       1 <0>         0.5700
     17 O1          3.1496   -1.1645    0.1237 O.2       1 <0>        -0.5420
     18 N3          3.7984   -3.2531    0.4676 N.2       1 <0>        -0.6054
     19 C15         4.8965   -2.8449    1.1005 C.2       1 <0>         0.3702
     20 N4          5.8858   -3.6005    1.6498 N.pl3     1 <0>        -0.6027
     21 C16         6.9430   -2.9856    2.2636 C.2       1 <0>         0.0946
     22 C17         6.9025   -1.6436    2.2666 C.2       1 <0>        -0.2562
     23 S1          5.4012   -1.2686    1.4087 S.3       1 <0>         0.2147
     24 C18         7.9111   -0.7172    2.8625 C.3       1 <0>         0.1462
     25 N5          8.7853   -1.5011    3.7566 N.3       1 <0>        -0.5389
     26 C19         9.2632   -2.7156    3.0806 C.3       1 <0>         0.0542
     27 C20         8.1134   -3.7132    2.9134 C.3       1 <0>        -0.0479
     28 C21         9.9108   -0.6887    4.2374 C.3       1 <0>         0.0234
     29 H1          1.0039    1.9031    0.0027 H         1 <0>         0.0606
     30 H2         -0.5459    1.8868   -0.8726 H         1 <0>         0.0531
     31 H3         -0.5289    1.8773    0.9072 H         1 <0>         0.0572
     32 H4          0.5293   -0.3651    0.8851 H         1 <0>         0.0709
     33 H5         -1.0205   -0.3814    0.0098 H         1 <0>         0.0561
     34 H6          0.1910   -0.1364   -2.1398 H         1 <0>         0.0741
     35 H7          1.7408   -0.1202   -1.2645 H         1 <0>         0.1108
     36 H8          1.8823   -5.0273   -0.6518 H         1 <0>         0.1920
     37 H9         -2.1958   -3.1177   -2.3466 H         1 <0>         0.1083
     38 H10        -1.7417   -1.4193   -2.0678 H         1 <0>         0.1039
     39 H11        -0.5519   -0.1561   -3.7687 H         1 <0>         0.1239
     40 H12        -0.0942    0.1161   -6.1727 H         1 <0>         0.1259
     41 H13        -0.4184   -1.7798   -7.7102 H         1 <0>         0.1247
     42 H14        -1.1995   -3.9481   -6.8434 H         1 <0>         0.1256
     43 H15        -1.6492   -4.2227   -4.4381 H         1 <0>         0.1261
     44 H16         8.5071   -0.2637    2.0705 H         1 <0>         0.0598
     45 H17         7.4040    0.0607    3.4333 H         1 <0>         0.0992
     46 H18         9.6579   -2.4515    2.0995 H         1 <0>         0.0457
     47 H19        10.0544   -3.1724    3.6751 H         1 <0>         0.0923
     48 H20         7.8131   -4.0950    3.8892 H         1 <0>         0.0999
     49 H21         8.4323   -4.5388    2.2771 H         1 <0>         0.0912
     50 H22         9.5292    0.2074    4.7266 H         1 <0>         0.0748
     51 H23        10.4995   -1.2682    4.9486 H         1 <0>         0.0752
     52 H24        10.5389   -0.4026    3.3938 H         1 <0>         0.0312
     53 H25         5.8418   -4.5685    1.6068 H         1 <0>         0.4183
@<TRIPOS>BOND
     1    1    2 1
     2    1   29 1
     3    1   30 1
     4    1   31 1
     5    2    3 1
     6    2   32 1
     7    2   33 1
     8    3    4 1
     9    3   34 1
    10    3   35 1
    11    4    8 1
    12    4    5 2
    13    5    6 1
    14    5   16 1
    15    6    7 2
    16    6   36 1
    17    7    8 1
    18    8    9 1
    19    9   10 1
    20    9   37 1
    21    9   38 1
    22   10   15 ar
    23   10   11 ar
    24   11   12 ar
    25   11   39 1
    26   12   13 ar
    27   12   40 1
    28   13   14 ar
    29   13   41 1
    30   14   15 ar
    31   14   42 1
    32   15   43 1
    33   16   17 2
    34   16   18 1
    35   18   19 2
    36   19   23 1
    37   19   20 1
    38   20   21 1
    39   20   53 1
    40   21   27 1
    41   21   22 2
    42   22   23 1
    43   22   24 1
    44   24   25 1
    45   24   44 1
    46   24   45 1
    47   25   26 1
    48   25   28 1
    49   26   27 1
    50   26   46 1
    51   26   47 1
    52   27   48 1
    53   27   49 1
    54   28   50 1
    55   28   51 1
    56   28   52 1
@<TRIPOS>MOLECULE
ZINC66428876
   32    33     0     0     0
SMALL
USER_CHARGES

@<TRIPOS>ATOM
      1 C1          0.0048    1.4250   -0.0057 C.3       1 <0>         0.0118
      2 O1          0.0183   -0.0039   -0.0095 O.3       1 <0>        -0.2656
      3 C2          0.6445   -0.6166    1.0263 C.ar      1 <0>         0.2408
      4 C3          1.2304    0.1387    2.0313 C.ar      1 <0>        -0.2146
      5 C4          1.8677   -0.4862    3.0845 C.ar      1 <0>         0.0164
      6 C5          1.9271   -1.8690    3.1469 C.ar      1 <0>        -0.0959
      7 C6          1.3505   -2.6350    2.1573 C.ar      1 <0>         0.0194
      8 C7          0.6973   -2.0157    1.0887 C.ar      1 <0>        -0.1756
      9 C8          0.0726   -2.8296    0.0289 C.2       1 <0>         0.5696
     10 O2         -0.4903   -2.2869   -0.9023 O.2       1 <0>        -0.4817
     11 N1          0.1257   -4.1748    0.0928 N.am      1 <0>        -0.6684
     12 C9         -0.5465   -4.9475   -0.8603 C.ar      1 <0>         0.1629
     13 C10        -0.6420   -4.5049   -2.1730 C.ar      1 <0>        -0.0823
     14 C11        -1.3067   -5.2705   -3.1121 C.ar      1 <0>        -0.0698
     15 C12        -1.8771   -6.4768   -2.7455 C.ar      1 <0>        -0.0910
     16 C13        -1.7842   -6.9202   -1.4393 C.ar      1 <0>        -0.0832
     17 C14        -1.1150   -6.1624   -0.4967 C.ar      1 <0>        -0.0509
     18 Cl1        -0.9922   -6.7236    1.1415 Cl        1 <0>        -0.0499
     19 Br1        -1.4374   -4.6686   -4.9000 Br        1 <0>        -0.0304
     20 N2          2.6135   -2.5264    4.2817 N.pl3     1 <0>         0.0388
     21 O3          3.1207   -1.8570    5.1513 O.2       1 <0>        -0.1531
     22 O4          2.6669   -3.7329    4.3389 O.3       1 <0>        -0.1574
     23 H1          1.0288    1.7982   -0.0205 H         1 <0>         0.0669
     24 H2         -0.5261    1.7857   -0.8868 H         1 <0>         0.1150
     25 H3         -0.4988    1.7812    0.8930 H         1 <0>         0.0668
     26 H4          1.1883    1.2171    1.9897 H         1 <0>         0.1634
     27 H5          2.3230    0.1064    3.8642 H         1 <0>         0.1652
     28 H6          1.3996   -3.7126    2.2099 H         1 <0>         0.1609
     29 H7          0.6300   -4.6073    0.7997 H         1 <0>         0.4142
     30 H8         -0.1977   -3.5632   -2.4596 H         1 <0>         0.1607
     31 H9         -2.3963   -7.0731   -3.4813 H         1 <0>         0.1466
     32 H10        -2.2311   -7.8618   -1.1562 H         1 <0>         0.1503
@<TRIPOS>BOND
     1    1    2 1
     2    1   23 1
     3    1   24 1
     4    1   25 1
     5    2    3 1
     6    3    8 ar
     7    3    4 ar
     8    4    5 ar
     9    4   26 1
    10    5    6 ar
    11    5   27 1
    12    6    7 ar
    13    6   20 1
    14    7    8 ar
    15    7   28 1
    16    8    9 1
    17    9   10 2
    18    9   11 am
    19   11   12 1
    20   11   29 1
    21   12   17 ar
    22   12   13 ar
    23   13   14 ar
    24   13   30 1
    25   14   15 ar
    26   14   19 1
    27   15   16 ar
    28   15   31 1
    29   16   17 ar
    30   16   32 1
    31   17   18 1
    32   20   21 2
    33   20   22 1
@<TRIPOS>MOLECULE
ZINC13003069
   53    56     0     0     0
SMALL
USER_CHARGES
(2S)-1-[2-(benzyl-cyclopropyl-amino)acetyl]-2-(trifluoromethyl)-3,5-dihydro-2H-1,5-benzodiazepin-4-one
@<TRIPOS>ATOM
      1 C1          0.0999    1.8604   -2.6840 C.ar      1 <0>        -0.0833
      2 C2          0.9283    1.4043   -3.6923 C.ar      1 <0>        -0.1129
      3 C3          2.2101    0.9806   -3.3951 C.ar      1 <0>        -0.0875
      4 C4          2.6640    1.0145   -2.0898 C.ar      1 <0>        -0.1576
      5 C5          1.8356    1.4706   -1.0816 C.ar      1 <0>        -0.0985
      6 C6          0.5536    1.8938   -1.3787 C.ar      1 <0>        -0.1148
      7 C7          4.0618    0.5536   -1.7660 C.3       1 <0>         0.0508
      8 C8          5.4113   -1.4187   -1.3766 C.3       1 <0>        -0.0310
      9 C9          5.9800   -1.5742   -2.7635 C.2       1 <0>         0.5190
     10 O1          5.3439   -1.1982   -3.7254 O.2       1 <0>        -0.4973
     11 N1          7.1953   -2.1309   -2.9349 N.am      1 <0>        -0.5412
     12 C10         7.9413   -2.5697   -1.8322 C.ar      1 <0>         0.0569
     13 C11         7.5671   -3.7054   -1.1329 C.ar      1 <0>        -0.0926
     14 C12         8.3285   -4.1360   -0.0620 C.ar      1 <0>        -0.1063
     15 C13         9.4626   -3.4385    0.3123 C.ar      1 <0>        -0.0694
     16 C14         9.8385   -2.2992   -0.3755 C.ar      1 <0>        -0.1154
     17 C15         9.0745   -1.8550   -1.4419 C.ar      1 <0>         0.1561
     18 N2          9.4030   -0.6741   -2.1175 N.am      1 <0>        -0.6765
     19 C16         9.4455   -0.6461   -3.4674 C.2       1 <0>         0.5329
     20 O2          9.6488    0.4024   -4.0422 O.2       1 <0>        -0.4943
     21 C17         9.2415   -1.9081   -4.2632 C.3       1 <0>        -0.1589
     22 C18         7.7580   -2.2938   -4.2767 C.3       1 <0>         0.1092
     23 H1          7.2224   -1.6504   -4.9747 H         1 <0>         0.1590
     24 C19         7.6106   -3.7519   -4.7162 C.3       1 <0>         0.4472
     25 F1          6.2555   -4.0993   -4.7326 F         1 <0>        -0.1725
     26 F2          8.1479   -3.9091   -5.9983 F         1 <0>        -0.1626
     27 F3          8.2936   -4.5806   -3.8196 F         1 <0>        -0.1693
     28 C20         3.2941   -1.1550   -0.2317 C.3       1 <0>        -0.0826
     29 C21         4.0827   -1.6506    0.9821 C.3       1 <0>        -0.1559
     30 C22         3.1723   -2.6131    0.2154 C.3       1 <0>        -0.1571
     31 H2         -0.9034    2.1865   -2.9155 H         1 <0>         0.1358
     32 H3          0.5738    1.3782   -4.7121 H         1 <0>         0.1363
     33 H4          2.8573    0.6242   -4.1828 H         1 <0>         0.1347
     34 H5          2.1902    1.4967   -0.0618 H         1 <0>         0.1307
     35 H6         -0.0936    2.2502   -0.5910 H         1 <0>         0.1359
     36 H7          4.7125    0.7383   -2.6208 H         1 <0>         0.1377
     37 H8          4.4340    1.1023   -0.9008 H         1 <0>         0.1373
     38 H9          6.0342   -0.7321   -0.8033 H         1 <0>         0.1684
     39 H10         5.3901   -2.3896   -0.8816 H         1 <0>         0.1621
     40 H11         6.6826   -4.2529   -1.4232 H         1 <0>         0.1352
     41 H12         8.0362   -5.0204    0.4847 H         1 <0>         0.1440
     42 H13        10.0572   -3.7851    1.1447 H         1 <0>         0.1453
     43 H14        10.7254   -1.7574   -0.0820 H         1 <0>         0.1462
     44 H15         9.6014    0.1302   -1.6127 H         1 <0>         0.4197
     45 H16         9.5826   -1.7492   -5.2862 H         1 <0>         0.1426
     46 H17         9.8183   -2.7162   -3.8134 H         1 <0>         0.1162
     47 H18         2.4438   -0.4989   -0.0458 H         1 <0>         0.1829
     48 H19         5.1592   -1.7756    0.8661 H         1 <0>         0.1197
     49 H20         3.7509   -1.3209    1.9667 H         1 <0>         0.1373
     50 H21         2.2420   -2.9162    0.6958 H         1 <0>         0.1382
     51 H22         3.6496   -3.3714   -0.4054 H         1 <0>         0.1172
     52 N3          4.0325   -0.8974   -1.4860 N.4       1 <0>        -0.3530
     53 H23         3.5551   -1.3766   -2.2585 H         1 <0>         0.4358
@<TRIPOS>BOND
     1    1    6 ar
     2    1    2 ar
     3    1   31 1
     4    2    3 ar
     5    2   32 1
     6    3    4 ar
     7    3   33 1
     8    4    5 ar
     9    4    7 1
    10    5    6 ar
    11    5   34 1
    12    6   35 1
    13    7   36 1
    14    7   37 1
    15    7   52 1
    16    8    9 1
    17    8   38 1
    18    8   39 1
    19    8   52 1
    20    9   10 2
    21    9   11 am
    22   11   22 1
    23   11   12 1
    24   12   17 ar
    25   12   13 ar
    26   13   14 ar
    27   13   40 1
    28   14   15 ar
    29   14   41 1
    30   15   16 ar
    31   15   42 1
    32   16   17 ar
    33   16   43 1
    34   17   18 1
    35   18   19 am
    36   18   44 1
    37   19   20 2
    38   19   21 1
    39   21   22 1
    40   21   45 1
    41   21   46 1
    42   22   23 1
    43   22   24 1
    44   24   25 1
    45   24   26 1
    46   24   27 1
    47   28   30 1
    48   28   29 1
    49   28   47 1
    50   28   52 1
    51   29   30 1
    52   29   48 1
    53   29   49 1
    54   30   50 1
    55   30   51 1
    56   52   53 1
@<TRIPOS>MOLECULE
ZINC38671327
   60    64     0     0     0
SMALL
USER_CHARGES

@<TRIPOS>ATOM
      1 C1         -0.2711    1.8639    0.5920 C.3       1 <0>         0.0999
      2 N1         -0.2006    0.4091    0.4341 N.pl3     1 <0>        -0.6197
      3 C2         -0.1767   -0.2957   -0.8504 C.3       1 <0>         0.1105
      4 C3         -0.0999   -1.7882   -0.4896 C.3       1 <0>        -0.0877
      5 C4         -0.0858   -1.8131    1.0223 C.ar      1 <0>        -0.1592
      6 C5         -0.1403   -0.5074    1.4851 C.ar      1 <0>         0.2299
      7 C6         -0.1334   -0.2756    2.8620 C.ar      1 <0>        -0.1699
      8 C7         -0.0684   -1.3329    3.7446 C.ar      1 <0>        -0.0655
      9 C8         -0.0100   -2.6311    3.2726 C.ar      1 <0>        -0.2099
     10 C9         -0.0257   -2.8692    1.9105 C.ar      1 <0>        -0.0272
     11 C10         0.0614   -3.7842    4.2403 C.3       1 <0>         0.0793
     12 H1          0.4503   -4.6645    3.7284 H         1 <0>         0.1453
     13 C11        -1.3384   -4.0847    4.7798 C.3       1 <0>         0.1057
     14 N2         -2.2018   -4.5229    3.6804 N.am      1 <0>        -0.7157
     15 C12        -3.5137   -4.7407    3.8995 C.2       1 <0>         0.6148
     16 O1         -3.9808   -4.5733    5.0102 O.2       1 <0>        -0.5029
     17 C13        -4.3799   -5.1803    2.7965 C.2       1 <0>        -0.0504
     18 C14        -5.7120   -5.4244    2.8985 C.2       1 <0>        -0.0866
     19 C15        -6.1521   -5.8335    1.5652 C.ar      1 <0>        -0.1517
     20 C16        -7.3808   -6.2124    1.0190 C.ar      1 <0>        -0.0540
     21 C17        -7.4598   -6.5462   -0.3035 C.ar      1 <0>        -0.1343
     22 C18        -6.3279   -6.5115   -1.1066 C.ar      1 <0>        -0.0716
     23 C19        -5.1066   -6.1409   -0.5871 C.ar      1 <0>        -0.1153
     24 C20        -5.0016   -5.7961    0.7557 C.ar      1 <0>         0.0762
     25 O2         -3.9728   -5.3969    1.5283 O.3       1 <0>        -0.1888
     26 N3          0.9511   -3.4332    5.3553 N.4       1 <0>        -0.3756
     27 C21         2.2786   -3.0906    4.8310 C.3       1 <0>        -0.0070
     28 C22         3.1860   -2.6463    5.9802 C.3       1 <0>        -0.1441
     29 C23         3.3144   -3.7880    6.9927 C.3       1 <0>        -0.1390
     30 C24         1.9175   -4.1871    7.4771 C.3       1 <0>        -0.1443
     31 C25         1.0571   -4.5743    6.2725 C.3       1 <0>        -0.0162
     32 H2          0.7377    2.2760    0.6171 H         1 <0>         0.0590
     33 H3         -0.8187    2.2943   -0.2464 H         1 <0>         0.0786
     34 H4         -0.7848    2.1038    1.5230 H         1 <0>         0.0721
     35 H5         -1.0875   -0.0888   -1.4122 H         1 <0>         0.0778
     36 H6          0.6997   -0.0005   -1.4274 H         1 <0>         0.0778
     37 H7         -0.9736   -2.3170   -0.8706 H         1 <0>         0.0925
     38 H8          0.8150   -2.2287   -0.8858 H         1 <0>         0.0925
     39 H9         -0.1788    0.7361    3.2372 H         1 <0>         0.1288
     40 H10        -0.0627   -1.1463    4.8083 H         1 <0>         0.1177
     41 H11         0.0212   -3.8827    1.5402 H         1 <0>         0.1287
     42 H12        -1.2771   -4.8730    5.5301 H         1 <0>         0.0925
     43 H13        -1.7545   -3.1844    5.2319 H         1 <0>         0.0958
     44 H14        -1.8293   -4.6563    2.7948 H         1 <0>         0.4123
     45 H15        -6.3225   -5.3348    3.7849 H         1 <0>         0.1727
     46 H16        -8.2643   -6.2418    1.6395 H         1 <0>         0.1353
     47 H17        -8.4092   -6.8393   -0.7269 H         1 <0>         0.1375
     48 H18        -6.4054   -6.7783   -2.1503 H         1 <0>         0.1424
     49 H19        -4.2331   -6.1177   -1.2217 H         1 <0>         0.1366
     50 H20         2.7123   -3.9634    4.3428 H         1 <0>         0.1285
     51 H21         2.1851   -2.2801    4.1082 H         1 <0>         0.1347
     52 H22         4.1716   -2.3940    5.5891 H         1 <0>         0.1119
     53 H23         2.7533   -1.7733    6.4689 H         1 <0>         0.0867
     54 H24         3.7939   -4.6440    6.5179 H         1 <0>         0.0820
     55 H25         3.9137   -3.4572    7.8410 H         1 <0>         0.0941
     56 H26         1.9965   -5.0362    8.1560 H         1 <0>         0.1136
     57 H27         1.4585   -3.3461    7.9970 H         1 <0>         0.0882
     58 H28         0.0620   -4.8592    6.6139 H         1 <0>         0.1332
     59 H29         1.5169   -5.4155    5.7536 H         1 <0>         0.1318
     60 H30         0.5719   -2.6397    5.8498 H         1 <0>         0.4195
@<TRIPOS>BOND
     1    1    2 1
     2    1   32 1
     3    1   33 1
     4    1   34 1
     5    2    6 1
     6    2    3 1
     7    3    4 1
     8    3   35 1
     9    3   36 1
    10    4    5 1
    11    4   37 1
    12    4   38 1
    13    5   10 ar
    14    5    6 ar
    15    6    7 ar
    16    7    8 ar
    17    7   39 1
    18    8    9 ar
    19    8   40 1
    20    9   10 ar
    21    9   11 1
    22   10   41 1
    23   11   12 1
    24   11   13 1
    25   11   26 1
    26   13   14 1
    27   13   42 1
    28   13   43 1
    29   14   15 am
    30   14   44 1
    31   15   16 2
    32   15   17 1
    33   17   25 1
    34   17   18 2
    35   18   19 1
    36   18   45 1
    37   19   24 ar
    38   19   20 ar
    39   20   21 ar
    40   20   46 1
    41   21   22 ar
    42   21   47 1
    43   22   23 ar
    44   22   48 1
    45   23   24 ar
    46   23   49 1
    47   24   25 1
    48   26   31 1
    49   26   27 1
    50   26   60 1
    51   27   28 1
    52   27   50 1
    53   27   51 1
    54   28   29 1
    55   28   52 1
    56   28   53 1
    57   29   30 1
    58   29   54 1
    59   29   55 1
    60   30   31 1
    61   30   56 1
    62   30   57 1
    63   31   58 1
    64   31   59 1
@<TRIPOS>MOLECULE
ZINC56443080
   60    62     0     0     0
SMALL
USER_CHARGES

@<TRIPOS>ATOM
      1 C1          0.1058    1.5185   -0.0898 C.3       1 <0>        -0.1645
      2 C2          0.0020   -0.0051    0.0036 C.3       1 <0>         0.2058
      3 H1          0.4408   -0.4544   -0.8873 H         1 <0>         0.1135
      4 C3          0.7427   -0.4852    1.2251 C.ar      1 <0>        -0.1419
      5 C4          1.0850    0.4084    2.2217 C.ar      1 <0>        -0.0734
      6 C5          1.7649   -0.0312    3.3422 C.ar      1 <0>        -0.1577
      7 C6          2.1037   -1.3659    3.4689 C.ar      1 <0>        -0.0713
      8 C7          1.7634   -2.2633    2.4756 C.ar      1 <0>        -0.2121
      9 C8          1.0764   -1.8255    1.3524 C.ar      1 <0>         0.1443
     10 O1          0.7355   -2.7075    0.3763 O.3       1 <0>        -0.3005
     11 C9          1.1114   -4.0718    0.5745 C.3       1 <0>         0.0280
     12 N1         -1.4071   -0.3934    0.1029 N.am      1 <0>        -0.6136
     13 C10        -2.2465    0.1616    1.1676 C.3       1 <0>         0.0749
     14 C11        -1.9311   -1.2613   -0.7851 C.2       1 <0>         0.7114
     15 O2         -1.2344   -1.7219   -1.6687 O.2       1 <0>        -0.5729
     16 N2         -3.2275   -1.6185   -0.6937 N.am      1 <0>        -0.7469
     17 C12        -3.7971   -2.5619   -1.6590 C.3       1 <0>         0.1573
     18 C13        -4.2563   -1.8027   -2.9072 C.3       1 <0>        -0.1608
     19 C14        -4.9218   -2.7816   -3.8770 C.3       1 <0>        -0.0024
     20 N3         -6.0809   -3.4064   -3.2285 N.4       1 <0>        -0.3847
     21 C15        -5.6394   -4.1951   -2.0720 C.3       1 <0>        -0.0041
     22 C16        -5.0016   -3.2707   -1.0328 C.3       1 <0>        -0.1546
     23 C17        -6.7618   -4.2859   -4.1881 C.3       1 <0>         0.0452
     24 C18        -8.0198   -4.8323   -3.5636 C.ar      1 <0>        -0.1938
     25 C19        -8.0299   -6.1080   -3.0317 C.ar      1 <0>        -0.0659
     26 C20        -9.1836   -6.6094   -2.4589 C.ar      1 <0>        -0.1213
     27 C21       -10.3287   -5.8357   -2.4173 C.ar      1 <0>        -0.0555
     28 C22       -10.3209   -4.5599   -2.9480 C.ar      1 <0>        -0.1454
     29 C23        -9.1641   -4.0546   -3.5174 C.ar      1 <0>         0.1185
     30 F1         -9.1540   -2.8057   -4.0324 F         1 <0>        -0.1326
     31 H2          1.1542    1.8074   -0.1637 H         1 <0>         0.0761
     32 H3         -0.4299    1.8657   -0.9733 H         1 <0>         0.0632
     33 H4         -0.3330    1.9678    0.8011 H         1 <0>         0.0634
     34 H5          0.8215    1.4513    2.1251 H         1 <0>         0.1341
     35 H6          2.0322    0.6690    4.1199 H         1 <0>         0.1270
     36 H7          2.6352   -1.7069    4.3451 H         1 <0>         0.1267
     37 H8          2.0283   -3.3056    2.5750 H         1 <0>         0.1282
     38 H9          0.7799   -4.6673   -0.2762 H         1 <0>         0.0977
     39 H10         2.1954   -4.1404    0.6657 H         1 <0>         0.0566
     40 H11         0.6456   -4.4484    1.4852 H         1 <0>         0.0517
     41 H12        -2.7840    1.0316    0.7902 H         1 <0>         0.0585
     42 H13        -2.9614   -0.5924    1.4969 H         1 <0>         0.0604
     43 H14        -1.6188    0.4586    2.0077 H         1 <0>         0.0811
     44 H15        -3.7833   -1.2511    0.0112 H         1 <0>         0.3996
     45 H16        -3.0438   -3.2993   -1.9361 H         1 <0>         0.1059
     46 H17        -4.9710   -1.0309   -2.6215 H         1 <0>         0.0884
     47 H18        -3.3948   -1.3412   -3.3899 H         1 <0>         0.1200
     48 H19        -5.2497   -2.2443   -4.7669 H         1 <0>         0.1347
     49 H20        -4.2062   -3.5527   -4.1623 H         1 <0>         0.1343
     50 H21        -6.4972   -4.7015   -1.6294 H         1 <0>         0.1337
     51 H22        -4.9086   -4.9361   -2.3958 H         1 <0>         0.1344
     52 H23        -4.6729   -3.8584   -0.1757 H         1 <0>         0.1187
     53 H24        -5.7318   -2.5294   -0.7081 H         1 <0>         0.0920
     54 H25        -7.0172   -3.7186   -5.0831 H         1 <0>         0.1401
     55 H26        -6.1017   -5.1107   -4.4567 H         1 <0>         0.1436
     56 H27        -7.1361   -6.7134   -3.0640 H         1 <0>         0.1439
     57 H28        -9.1906   -7.6065   -2.0438 H         1 <0>         0.1449
     58 H29       -11.2298   -6.2288   -1.9701 H         1 <0>         0.1474
     59 H30       -11.2156   -3.9559   -2.9156 H         1 <0>         0.1495
     60 H31        -6.7201   -2.6889   -2.9208 H         1 <0>         0.4215
@<TRIPOS>BOND
     1    1    2 1
     2    1   31 1
     3    1   32 1
     4    1   33 1
     5    2    3 1
     6    2    4 1
     7    2   12 1
     8    4    9 ar
     9    4    5 ar
    10    5    6 ar
    11    5   34 1
    12    6    7 ar
    13    6   35 1
    14    7    8 ar
    15    7   36 1
    16    8    9 ar
    17    8   37 1
    18    9   10 1
    19   10   11 1
    20   11   38 1
    21   11   39 1
    22   11   40 1
    23   12   13 1
    24   12   14 am
    25   13   41 1
    26   13   42 1
    27   13   43 1
    28   14   15 2
    29   14   16 am
    30   16   17 1
    31   16   44 1
    32   17   22 1
    33   17   18 1
    34   17   45 1
    35   18   19 1
    36   18   46 1
    37   18   47 1
    38   19   20 1
    39   19   48 1
    40   19   49 1
    41   20   21 1
    42   20   23 1
    43   20   60 1
    44   21   22 1
    45   21   50 1
    46   21   51 1
    47   22   52 1
    48   22   53 1
    49   23   24 1
    50   23   54 1
    51   23   55 1
    52   24   29 ar
    53   24   25 ar
    54   25   26 ar
    55   25   56 1
    56   26   27 ar
    57   26   57 1
    58   27   28 ar
    59   27   58 1
    60   28   29 ar
    61   28   59 1
    62   29   30 1
@<TRIPOS>MOLECULE
ZINC64042766
   61    65     0     0     0
SMALL
USER_CHARGES

@<TRIPOS>ATOM
      1 C1         -0.0167    1.3781    0.0096 C.ar      1 <0>        -0.1001
      2 C2          1.1709    2.0855    0.0021 C.ar      1 <0>        -0.1055
      3 C3          2.3773    1.4107   -0.0130 C.ar      1 <0>        -0.1026
      4 C4          2.3960    0.0285   -0.0201 C.ar      1 <0>        -0.1085
      5 C5          1.2084   -0.6789   -0.0117 C.ar      1 <0>        -0.1231
      6 C6          0.0021   -0.0041    0.0020 C.ar      1 <0>        -0.1076
      7 C7          3.7112   -0.7071   -0.0376 C.3       1 <0>        -0.0191
      8 H1          4.5299    0.0124   -0.0426 H         1 <0>         0.1261
      9 C8          3.7911   -1.5793   -1.2921 C.3       1 <0>         0.1281
     10 N1          3.8097   -0.7238   -2.4812 N.am      1 <0>        -0.7265
     11 C9          3.8776   -1.2770   -3.7083 C.2       1 <0>         0.5343
     12 O1          3.9234   -2.4830   -3.8282 O.2       1 <0>        -0.5222
     13 C10         3.8968   -0.3970   -4.9316 C.3       1 <0>        -0.1247
     14 H2          4.7499    0.2810   -4.9085 H         1 <0>         0.1230
     15 C11         2.5709    0.3863   -5.0706 C.3       1 <0>        -0.1450
     16 C12         2.3135    0.4185   -6.5610 C.2       1 <0>         0.5173
     17 O2          1.5351    1.1652   -7.1155 O.2       1 <0>        -0.5122
     18 N2          3.0733   -0.5006   -7.1813 N.am      1 <0>        -0.6137
     19 C13         3.8995   -1.2451   -6.2227 C.3       1 <0>         0.1161
     20 C14         3.0774   -0.7296   -8.6283 C.3       1 <0>         0.1529
     21 C15         3.4326    0.5761   -9.3690 C.3       1 <0>        -0.1345
     22 C16         2.5446    0.5468  -10.6377 C.3       1 <0>        -0.1214
     23 C17         1.2198   -0.0610  -10.1136 C.3       1 <0>        -0.1212
     24 C18         1.6704   -1.1347   -9.1017 C.3       1 <0>        -0.1312
     25 C19         3.8156   -1.5785    1.1875 C.2       1 <0>         0.0775
     26 C20         4.7565   -1.5093    2.1568 C.ar      1 <0>        -0.1616
     27 C21         5.9202   -0.6364    2.3524 C.ar      1 <0>        -0.0128
     28 C22         6.6957   -0.8124    3.4464 C.ar      1 <0>        -0.1490
     29 C23         6.4168   -1.8054    4.3955 C.ar      1 <0>         0.0548
     30 C24         5.3660   -2.6455    4.2848 C.ar      1 <0>        -0.2088
     31 C25         4.4834   -2.5499    3.1737 C.ar      1 <0>         0.3292
     32 N3          3.4152   -3.2356    2.8459 N.pl3     1 <0>        -0.5820
     33 C26         2.8859   -2.7030    1.5855 C.3       1 <0>         0.0532
     34 H3         -0.9591    1.9053    0.0259 H         1 <0>         0.1318
     35 H4          1.1563    3.1654    0.0076 H         1 <0>         0.1334
     36 H5          3.3051    1.9634   -0.0196 H         1 <0>         0.1299
     37 H6          1.2231   -1.7588   -0.0176 H         1 <0>         0.1198
     38 H7         -0.9258   -0.5567    0.0082 H         1 <0>         0.1308
     39 H8          4.7013   -2.1781   -1.2610 H         1 <0>         0.0841
     40 H9          2.9238   -2.2384   -1.3322 H         1 <0>         0.0815
     41 H10         3.7731    0.2407   -2.3854 H         1 <0>         0.4077
     42 H11         1.7641   -0.1349   -4.5553 H         1 <0>         0.1059
     43 H12         2.6829    1.3980   -4.6808 H         1 <0>         0.1101
     44 H13         4.9158   -1.3512   -6.6023 H         1 <0>         0.0875
     45 H14         3.4635   -2.2256   -6.0310 H         1 <0>         0.0909
     46 H15         3.7953   -1.5100   -8.8805 H         1 <0>         0.0946
     47 H16         3.1898    1.4422   -8.7532 H         1 <0>         0.0783
     48 H17         4.4878    0.5848   -9.6420 H         1 <0>         0.0685
     49 H18         2.3827    1.5550  -11.0192 H         1 <0>         0.0702
     50 H19         2.9859   -0.0910  -11.4035 H         1 <0>         0.0686
     51 H20         0.6196    0.7021   -9.6182 H         1 <0>         0.0731
     52 H21         0.6601   -0.5173  -10.9301 H         1 <0>         0.0656
     53 H22         1.7057   -2.1114   -9.5845 H         1 <0>         0.0706
     54 H23         0.9846   -1.1610   -8.2549 H         1 <0>         0.0675
     55 H24         6.1539    0.1347    1.6333 H         1 <0>         0.1606
     56 H25         7.5524   -0.1713    3.5924 H         1 <0>         0.1588
     57 H26         7.0696   -1.9027    5.2504 H         1 <0>         0.1618
     58 H27         5.1948   -3.3945    5.0438 H         1 <0>         0.1615
     59 H28         1.8754   -2.3212    1.7314 H         1 <0>         0.1758
     60 H29         2.8878   -3.4803    0.8213 H         1 <0>         0.1752
     61 H30         3.0359   -3.9698    3.3538 H         1 <0>         0.4567
@<TRIPOS>BOND
     1    1    6 ar
     2    1    2 ar
     3    1   34 1
     4    2    3 ar
     5    2   35 1
     6    3    4 ar
     7    3   36 1
     8    4    5 ar
     9    4    7 1
    10    5    6 ar
    11    5   37 1
    12    6   38 1
    13    7    8 1
    14    7    9 1
    15    7   25 1
    16    9   10 1
    17    9   39 1
    18    9   40 1
    19   10   11 am
    20   10   41 1
    21   11   12 2
    22   11   13 1
    23   13   14 1
    24   13   19 1
    25   13   15 1
    26   15   16 1
    27   15   42 1
    28   15   43 1
    29   16   17 2
    30   16   18 am
    31   18   19 1
    32   18   20 1
    33   19   44 1
    34   19   45 1
    35   20   24 1
    36   20   21 1
    37   20   46 1
    38   21   22 1
    39   21   47 1
    40   21   48 1
    41   22   23 1
    42   22   49 1
    43   22   50 1
    44   23   24 1
    45   23   51 1
    46   23   52 1
    47   24   53 1
    48   24   54 1
    49   25   33 1
    50   25   26 2
    51   26   31 ar
    52   26   27 ar
    53   27   28 ar
    54   27   55 1
    55   28   29 ar
    56   28   56 1
    57   29   30 ar
    58   29   57 1
    59   30   31 ar
    60   30   58 1
    61   31   32 2
    62   32   33 1
    63   32   61 1
    64   33   59 1
    65   33   60 1
@<TRIPOS>MOLECULE
ZINC67295564
   46    49     0     0     0
SMALL
USER_CHARGES

@<TRIPOS>ATOM
      1 C1         -0.0731    1.4991    0.0490 C.3       1 <0>        -0.1362
      2 C2         -0.0373   -0.0073    0.0282 C.ar      1 <0>        -0.0290
      3 C3         -0.0163   -0.6790   -1.1814 C.ar      1 <0>        -0.0896
      4 C4          0.0165   -2.0574   -1.2084 C.ar      1 <0>        -0.0768
      5 C5          0.0288   -2.7767   -0.0104 C.ar      1 <0>         0.0285
      6 C6          0.0079   -2.0931    1.2074 C.ar      1 <0>        -0.0798
      7 C7         -0.0200   -0.7128    1.2197 C.ar      1 <0>        -0.0300
      8 Cl1        -0.0400    0.1399    2.7317 Cl        1 <0>        -0.0281
      9 N1          0.0608   -4.1437   -0.0302 N.pl3     1 <0>        -0.4627
     10 C8          0.8788   -4.7941    0.7686 C.2       1 <0>         0.5230
     11 C9          0.8437   -6.2673    0.8575 C.2       1 <0>        -0.2641
     12 C10         2.0189   -6.9069    1.2292 C.2       1 <0>         0.1290
     13 C11         3.1866   -6.0649    1.4993 C.ar      1 <0>        -0.1722
     14 C12         4.4636   -6.6264    1.6167 C.ar      1 <0>        -0.0289
     15 C13         5.5382   -5.8197    1.8659 C.ar      1 <0>        -0.1182
     16 C14         5.3740   -4.4489    2.0030 C.ar      1 <0>        -0.0280
     17 C15         4.1231   -3.8752    1.8920 C.ar      1 <0>        -0.1141
     18 C16         3.0177   -4.6747    1.6413 C.ar      1 <0>         0.1267
     19 O1          1.7847   -4.1314    1.5322 O.3       1 <0>        -0.2055
     20 C17        -0.3846   -7.0257    0.5651 C.2       1 <0>         0.5799
     21 O2         -1.3740   -6.4474    0.1576 O.2       1 <0>        -0.5305
     22 N2         -0.4122   -8.3606    0.7489 N.am      1 <0>        -0.7054
     23 C18        -1.5943   -9.1302    0.3531 C.3       1 <0>         0.2058
     24 C19        -1.3713  -10.5881    0.6628 C.2       1 <0>        -0.0648
     25 C20        -1.6873  -11.2046    1.8158 C.2       1 <0>        -0.1662
     26 C21        -1.3075  -12.5591    1.6736 C.2       1 <0>        -0.2188
     27 C22        -0.7822  -12.6892    0.4421 C.2       1 <0>        -0.0129
     28 O3         -0.8288  -11.4935   -0.1677 O.3       1 <0>        -0.1712
     29 H1          0.9457    1.8867    0.0535 H         1 <0>         0.0922
     30 H2         -0.5962    1.8624   -0.8356 H         1 <0>         0.0858
     31 H3         -0.5946    1.8379    0.9442 H         1 <0>         0.0849
     32 H4         -0.0258   -0.1223   -2.1069 H         1 <0>         0.1579
     33 H5          0.0322   -2.5800   -2.1534 H         1 <0>         0.1510
     34 H6          0.0170   -2.6427    2.1371 H         1 <0>         0.1464
     35 H7          2.0697   -7.9822    1.3161 H         1 <0>         0.1855
     36 H8          4.5989   -7.6927    1.5110 H         1 <0>         0.1584
     37 H9          6.5233   -6.2528    1.9572 H         1 <0>         0.1557
     38 H10         6.2331   -3.8244    2.1989 H         1 <0>         0.1603
     39 H11         4.0056   -2.8071    2.0005 H         1 <0>         0.1591
     40 H12         0.3505   -8.8117    1.1433 H         1 <0>         0.4073
     41 H13        -2.4633   -8.7705    0.9040 H         1 <0>         0.1119
     42 H14        -1.7660   -9.0081   -0.7164 H         1 <0>         0.0983
     43 H15        -2.1430  -10.7518    2.6839 H         1 <0>         0.1535
     44 H16        -1.4177  -13.3394    2.4120 H         1 <0>         0.1561
     45 H17        -0.3928  -13.6014    0.0147 H         1 <0>         0.2107
     46 H18        -0.5197   -4.6337   -0.6334 H         1 <0>         0.4653
@<TRIPOS>BOND
     1    1    2 1
     2    1   29 1
     3    1   30 1
     4    1   31 1
     5    2    7 ar
     6    2    3 ar
     7    3    4 ar
     8    3   32 1
     9    4    5 ar
    10    4   33 1
    11    5    6 ar
    12    5    9 1
    13    6    7 ar
    14    6   34 1
    15    7    8 1
    16    9   10 2
    17    9   46 1
    18   10   19 1
    19   10   11 1
    20   11   12 2
    21   11   20 1
    22   12   13 1
    23   12   35 1
    24   13   18 ar
    25   13   14 ar
    26   14   15 ar
    27   14   36 1
    28   15   16 ar
    29   15   37 1
    30   16   17 ar
    31   16   38 1
    32   17   18 ar
    33   17   39 1
    34   18   19 1
    35   20   21 2
    36   20   22 am
    37   22   23 1
    38   22   40 1
    39   23   24 1
    40   23   41 1
    41   23   42 1
    42   24   28 1
    43   24   25 2
    44   25   26 1
    45   25   43 1
    46   26   27 2
    47   26   44 1
    48   27   28 1
    49   27   45 1
@<TRIPOS>MOLECULE
ZINC12776669
   48    49     0     0     0
SMALL
USER_CHARGES
2-[[2-(benzylcarbamoylamino)acetyl]-methyl-amino]-N-(2-bromophenyl)acetamide
@<TRIPOS>ATOM
      1 C1          2.9661    0.5841   -1.2672 C.3       1 <0>         0.0735
      2 N1          2.4064    1.0417    0.0070 N.am      1 <0>        -0.5962
      3 C2          1.2804    1.9789    0.0180 C.3       1 <0>         0.0989
      4 C3         -0.0146    1.2082    0.0147 C.2       1 <0>         0.5001
      5 O1          0.0014   -0.0045    0.0042 O.2       1 <0>        -0.5043
      6 N2         -1.1906    1.8666    0.0178 N.am      1 <0>        -0.6719
      7 C4         -2.3913    1.1550   -0.0860 C.ar      1 <0>         0.1738
      8 C5         -2.5099   -0.0988    0.4990 C.ar      1 <0>        -0.1153
      9 C6         -3.6978   -0.7962    0.3994 C.ar      1 <0>        -0.0846
     10 C7         -4.7653   -0.2523   -0.2915 C.ar      1 <0>        -0.1275
     11 C8         -4.6494    0.9935   -0.8798 C.ar      1 <0>        -0.0728
     12 C9         -3.4653    1.6991   -0.7794 C.ar      1 <0>        -0.1213
     13 Br1        -3.3069    3.4024   -1.5852 Br        1 <0>        -0.0443
     14 C10         2.9274    0.6005    1.1691 C.2       1 <0>         0.5189
     15 O2          2.4640    0.9793    2.2239 O.2       1 <0>        -0.5321
     16 C11         4.0856   -0.3636    1.1577 C.3       1 <0>         0.1250
     17 N3          4.4645   -0.6879    2.5352 N.am      1 <0>        -0.7368
     18 C12         5.4836   -1.5377    2.7715 C.2       1 <0>         0.7091
     19 O3          6.0884   -2.0351    1.8414 O.2       1 <0>        -0.5897
     20 N4          5.8321   -1.8361    4.0388 N.am      1 <0>        -0.7399
     21 C13         6.9398   -2.7598    4.2956 C.3       1 <0>         0.1811
     22 C14         7.1237   -2.9226    5.7825 C.ar      1 <0>        -0.1122
     23 C15         7.9783   -2.0807    6.4695 C.ar      1 <0>        -0.0993
     24 C16         8.1433   -2.2269    7.8341 C.ar      1 <0>        -0.1222
     25 C17         7.4614   -3.2213    8.5102 C.ar      1 <0>        -0.1106
     26 C18         6.6112   -4.0668    7.8222 C.ar      1 <0>        -0.1221
     27 C19         6.4422   -3.9173    6.4584 C.ar      1 <0>        -0.0993
     28 H1          3.7624    1.2604   -1.5781 H         1 <0>         0.0685
     29 H2          3.3697   -0.4212   -1.1466 H         1 <0>         0.0813
     30 H3          2.1827    0.5726   -2.0249 H         1 <0>         0.0775
     31 H4          1.3276    2.6139   -0.8666 H         1 <0>         0.1192
     32 H5          1.3322    2.5985    0.9133 H         1 <0>         0.1219
     33 H6         -1.2048    2.8337    0.0920 H         1 <0>         0.4144
     34 H7         -1.6754   -0.5263    1.0349 H         1 <0>         0.1473
     35 H8         -3.7918   -1.7696    0.8577 H         1 <0>         0.1340
     36 H9         -5.6914   -0.8021   -0.3719 H         1 <0>         0.1346
     37 H10        -5.4849    1.4155   -1.4186 H         1 <0>         0.1376
     38 H11         3.7942   -1.2755    0.6367 H         1 <0>         0.1021
     39 H12         4.9329    0.0925    0.6456 H         1 <0>         0.1013
     40 H13         3.9819   -0.2911    3.2772 H         1 <0>         0.4078
     41 H14         5.3496   -1.4392    4.7808 H         1 <0>         0.3993
     42 H15         6.7161   -3.7286    3.8490 H         1 <0>         0.0766
     43 H16         7.8548   -2.3606    3.8579 H         1 <0>         0.0767
     44 H17         8.5141   -1.3064    5.9406 H         1 <0>         0.1245
     45 H18         8.8078   -1.5666    8.3715 H         1 <0>         0.1247
     46 H19         7.5931   -3.3380    9.5757 H         1 <0>         0.1238
     47 H20         6.0787   -4.8440    8.3503 H         1 <0>         0.1247
     48 H21         5.7780   -4.5778    5.9210 H         1 <0>         0.1245
@<TRIPOS>BOND
     1    1    2 1
     2    1   28 1
     3    1   29 1
     4    1   30 1
     5    2    3 1
     6    2   14 am
     7    3    4 1
     8    3   31 1
     9    3   32 1
    10    4    5 2
    11    4    6 am
    12    6    7 1
    13    6   33 1
    14    7   12 ar
    15    7    8 ar
    16    8    9 ar
    17    8   34 1
    18    9   10 ar
    19    9   35 1
    20   10   11 ar
    21   10   36 1
    22   11   12 ar
    23   11   37 1
    24   12   13 1
    25   14   15 2
    26   14   16 1
    27   16   17 1
    28   16   38 1
    29   16   39 1
    30   17   18 am
    31   17   40 1
    32   18   19 2
    33   18   20 am
    34   20   21 1
    35   20   41 1
    36   21   22 1
    37   21   42 1
    38   21   43 1
    39   22   27 ar
    40   22   23 ar
    41   23   24 ar
    42   23   44 1
    43   24   25 ar
    44   24   45 1
    45   25   26 ar
    46   25   46 1
    47   26   27 ar
    48   26   47 1
    49   27   48 1
@<TRIPOS>MOLECULE
ZINC15985903
   44    45     0     0     0
SMALL
USER_CHARGES
3-[[(2,5-dichlorobenzoyl)amino]carbamoyl]-N-isopropyl-benzenesulfonamide
@<TRIPOS>ATOM
      1 C1          6.2743   13.3309   -2.4405 C.3       1 <0>        -0.1758
      2 C2          5.7287   11.9016   -2.4324 C.3       1 <0>         0.1455
      3 C3          5.7239   11.3494   -3.8593 C.3       1 <0>        -0.1615
      4 N1          6.5776   11.0596   -1.5858 N.pl3     1 <0>        -1.1109
      5 S1          6.1710   10.8023   -0.0012 S.o2      1 <0>         2.6933
      6 O1          5.8898   12.0779    0.5582 O.2       1 <0>        -0.9476
      7 O2          7.1609    9.9361    0.5365 O.2       1 <0>        -0.9510
      8 C4          4.6559    9.9030    0.0084 C.ar      1 <0>        -0.6850
      9 C5          3.4501   10.5819    0.0222 C.ar      1 <0>         0.0068
     10 C6          2.2561    9.8834    0.0298 C.ar      1 <0>        -0.1392
     11 C7          2.2603    8.5037    0.0184 C.ar      1 <0>        -0.0304
     12 C8          3.4729    7.8128    0.0094 C.ar      1 <0>        -0.1481
     13 C9          4.6742    8.5237    0.0018 C.ar      1 <0>         0.0467
     14 C10         3.4850    6.3344    0.0019 C.2       1 <0>         0.5640
     15 O3          4.5426    5.7354   -0.0111 O.2       1 <0>        -0.5246
     16 N2          2.3234    5.6509    0.0093 N.am      1 <0>        -0.5149
     17 N3          2.3349    4.2500    0.0021 N.am      1 <0>        -0.5162
     18 C11         1.1733    3.5665    0.0095 C.2       1 <0>         0.5611
     19 O4          0.1157    4.1656    0.0224 O.2       1 <0>        -0.5062
     20 C12         1.1854    2.0889    0.0020 C.ar      1 <0>        -0.1136
     21 C13         2.3984    1.3977   -0.0138 C.ar      1 <0>        -0.0659
     22 C14         2.4025    0.0175   -0.0217 C.ar      1 <0>        -0.0406
     23 C15         1.2069   -0.6820   -0.0136 C.ar      1 <0>        -0.0649
     24 C16         0.0021   -0.0041    0.0020 C.ar      1 <0>        -0.1039
     25 C17        -0.0167    1.3773    0.0096 C.ar      1 <0>         0.0211
     26 Cl1        -1.5305    2.2269    0.0214 Cl        1 <0>        -0.0147
     27 Cl2         3.9096   -0.8438   -0.0413 Cl        1 <0>        -0.0447
     28 H1          7.2912   13.3294   -2.8330 H         1 <0>         0.0635
     29 H2          5.6427   13.9574   -3.0704 H         1 <0>         0.0696
     30 H3          6.2777   13.7243   -1.4240 H         1 <0>         0.0720
     31 H4          4.7118   11.9031   -2.0400 H         1 <0>         0.0821
     32 H5          5.3352   10.3310   -3.8534 H         1 <0>         0.0624
     33 H6          5.0923   11.9758   -4.4892 H         1 <0>         0.0726
     34 H7          6.7408   11.3479   -4.2517 H         1 <0>         0.0655
     35 H8          7.3778   10.6529   -1.9534 H         1 <0>         0.4213
     36 H9          3.4413   11.6618    0.0266 H         1 <0>         0.1499
     37 H10         1.3184   10.4193    0.0405 H         1 <0>         0.1464
     38 H11         1.3274    7.9595    0.0202 H         1 <0>         0.1376
     39 H12         5.6159    7.9951   -0.0090 H         1 <0>         0.1574
     40 H13         1.4794    6.1290    0.0196 H         1 <0>         0.4333
     41 H14         3.1789    3.7720   -0.0082 H         1 <0>         0.4328
     42 H15         3.3313    1.9417   -0.0202 H         1 <0>         0.1465
     43 H16         1.2159   -1.7620   -0.0198 H         1 <0>         0.1529
     44 H17        -0.9265   -0.5556    0.0079 H         1 <0>         0.1554
@<TRIPOS>BOND
     1    1    2 1
     2    1   28 1
     3    1   29 1
     4    1   30 1
     5    2    3 1
     6    2    4 1
     7    2   31 1
     8    3   32 1
     9    3   33 1
    10    3   34 1
    11    4    5 1
    12    4   35 1
    13    5    6 2
    14    5    7 2
    15    5    8 1
    16    8   13 ar
    17    8    9 ar
    18    9   10 ar
    19    9   36 1
    20   10   11 ar
    21   10   37 1
    22   11   12 ar
    23   11   38 1
    24   12   13 ar
    25   12   14 1
    26   13   39 1
    27   14   15 2
    28   14   16 am
    29   16   17 1
    30   16   40 1
    31   17   18 am
    32   17   41 1
    33   18   19 2
    34   18   20 1
    35   20   25 ar
    36   20   21 ar
    37   21   22 ar
    38   21   42 1
    39   22   23 ar
    40   22   27 1
    41   23   24 ar
    42   23   43 1
    43   24   25 ar
    44   24   44 1
    45   25   26 1
@<TRIPOS>MOLECULE
ZINC13084807
   61    63     0     0     0
SMALL
USER_CHARGES

@<TRIPOS>ATOM
      1 C1         -0.0288    1.5008    0.0077 C.3       1 <0>        -0.1753
      2 C2         -0.0075   -0.0060   -0.0001 C.2       1 <0>         0.5169
      3 O1          1.0513   -0.5974   -0.0141 O.2       1 <0>        -0.5140
      4 N1         -1.1649   -0.6964    0.0085 N.am      1 <0>        -0.7224
      5 C3         -1.1442   -2.1612    0.0008 C.3       1 <0>         0.1425
      6 H1         -2.1665   -2.5391    0.0096 H         1 <0>         0.1086
      7 C4         -0.4288   -2.6546   -1.2584 C.3       1 <0>        -0.0938
      8 C5         -1.2254   -2.2608   -2.4756 C.ar      1 <0>        -0.0896
      9 C6         -2.1984   -3.1101   -2.9687 C.ar      1 <0>        -0.0881
     10 C7         -2.9299   -2.7499   -4.0845 C.ar      1 <0>        -0.1512
     11 C8         -2.6879   -1.5379   -4.7086 C.ar      1 <0>         0.0971
     12 C9         -1.7132   -0.6881   -4.2138 C.ar      1 <0>        -0.1511
     13 C10        -0.9866   -1.0481   -3.0947 C.ar      1 <0>        -0.0773
     14 F1         -3.4021   -1.1849   -5.7997 F         1 <0>        -0.1392
     15 C11        -0.4139   -2.6596    1.2213 C.2       1 <0>         0.5022
     16 O2          0.3433   -1.9235    1.8176 O.2       1 <0>        -0.5001
     17 N2         -0.6024   -3.9234    1.6501 N.am      1 <0>        -0.7298
     18 C12         0.1075   -4.4079    2.8365 C.3       1 <0>         0.1487
     19 C13        -0.6749   -4.0190    4.0930 C.3       1 <0>        -0.1428
     20 C14         0.0877   -4.4968    5.3327 C.3       1 <0>         0.1324
     21 N3          0.3446   -5.9377    5.2037 N.am      1 <0>        -0.6298
     22 C15         1.0110   -6.4306    3.9906 C.3       1 <0>         0.1160
     23 C16         0.2381   -5.9310    2.7659 C.3       1 <0>        -0.1421
     24 C17        -0.0237   -6.7910    6.1798 C.2       1 <0>         0.7086
     25 O3         -0.4904   -6.3627    7.2176 O.2       1 <0>        -0.5856
     26 N4          0.1254   -8.1191    6.0054 N.am      1 <0>        -0.7431
     27 C18        -0.3761   -9.0516    7.0179 C.3       1 <0>         0.1792
     28 C19        -0.0858  -10.4659    6.5860 C.ar      1 <0>        -0.1115
     29 C20        -1.0054  -11.1571    5.8195 C.ar      1 <0>        -0.1003
     30 C21        -0.7391  -12.4543    5.4233 C.ar      1 <0>        -0.1219
     31 C22         0.4470  -13.0603    5.7931 C.ar      1 <0>        -0.1107
     32 C23         1.3670  -12.3689    6.5588 C.ar      1 <0>        -0.1215
     33 C24         1.1026  -11.0701    6.9515 C.ar      1 <0>        -0.0997
     34 H2          0.9935    1.8788   -0.0010 H         1 <0>         0.0925
     35 H3         -0.5570    1.8613   -0.8750 H         1 <0>         0.0857
     36 H4         -0.5385    1.8523    0.9048 H         1 <0>         0.0870
     37 H5         -2.0117   -0.2234    0.0197 H         1 <0>         0.4056
     38 H6          0.5629   -2.2056   -1.3124 H         1 <0>         0.1055
     39 H7         -0.3348   -3.7399   -1.2212 H         1 <0>         0.0860
     40 H8         -2.3868   -4.0556   -2.4819 H         1 <0>         0.1329
     41 H9         -3.6897   -3.4137   -4.4697 H         1 <0>         0.1362
     42 H10        -1.5233    0.2574   -4.7000 H         1 <0>         0.1357
     43 H11        -0.2293   -0.3834   -2.7060 H         1 <0>         0.1281
     44 H12        -1.2081   -4.5121    1.1731 H         1 <0>         0.3981
     45 H13         1.1003   -3.9596    2.8739 H         1 <0>         0.0918
     46 H14        -0.7877   -2.9355    4.1305 H         1 <0>         0.0810
     47 H15        -1.6589   -4.4871    4.0683 H         1 <0>         0.0688
     48 H16         1.0345   -3.9621    5.4080 H         1 <0>         0.0697
     49 H17        -0.5112   -4.3109    6.2243 H         1 <0>         0.0981
     50 H18         2.0331   -6.0536    3.9564 H         1 <0>         0.0760
     51 H19         1.0213   -7.5205    3.9965 H         1 <0>         0.0816
     52 H20        -0.7545   -6.3811    2.7536 H         1 <0>         0.0747
     53 H21         0.7751   -6.2085    1.8588 H         1 <0>         0.0845
     54 H22         0.5647   -8.4575    5.2096 H         1 <0>         0.3961
     55 H23         0.1169   -8.8540    7.9698 H         1 <0>         0.0766
     56 H24        -1.4521   -8.9201    7.1318 H         1 <0>         0.0748
     57 H25        -1.9321  -10.6836    5.5305 H         1 <0>         0.1237
     58 H26        -1.4579  -12.9946    4.8250 H         1 <0>         0.1246
     59 H27         0.6547  -14.0741    5.4842 H         1 <0>         0.1240
     60 H28         2.2936  -12.8424    6.8481 H         1 <0>         0.1249
     61 H29         1.8230  -10.5286    7.5465 H         1 <0>         0.1245
@<TRIPOS>BOND
     1    1    2 1
     2    1   34 1
     3    1   35 1
     4    1   36 1
     5    2    3 2
     6    2    4 am
     7    4    5 1
     8    4   37 1
     9    5    6 1
    10    5    7 1
    11    5   15 1
    12    7    8 1
    13    7   38 1
    14    7   39 1
    15    8   13 ar
    16    8    9 ar
    17    9   10 ar
    18    9   40 1
    19   10   11 ar
    20   10   41 1
    21   11   12 ar
    22   11   14 1
    23   12   13 ar
    24   12   42 1
    25   13   43 1
    26   15   16 2
    27   15   17 am
    28   17   18 1
    29   17   44 1
    30   18   23 1
    31   18   19 1
    32   18   45 1
    33   19   20 1
    34   19   46 1
    35   19   47 1
    36   20   21 1
    37   20   48 1
    38   20   49 1
    39   21   22 1
    40   21   24 am
    41   22   23 1
    42   22   50 1
    43   22   51 1
    44   23   52 1
    45   23   53 1
    46   24   25 2
    47   24   26 am
    48   26   27 1
    49   26   54 1
    50   27   28 1
    51   27   55 1
    52   27   56 1
    53   28   33 ar
    54   28   29 ar
    55   29   30 ar
    56   29   57 1
    57   30   31 ar
    58   30   58 1
    59   31   32 ar
    60   31   59 1
    61   32   33 ar
    62   32   60 1
    63   33   61 1
@<TRIPOS>MOLECULE
ZINC21347617
   49    51     0     0     0
SMALL
USER_CHARGES

@<TRIPOS>ATOM
      1 C1         -0.0917    1.3987   -0.1981 C.ar      1 <0>        -0.1119
      2 C2          0.9461    1.8347   -1.0017 C.ar      1 <0>        -0.0756
      3 C3          2.1523    1.1625   -0.9995 C.ar      1 <0>        -0.0787
      4 C4          2.3228    0.0474   -0.1889 C.ar      1 <0>         0.1748
      5 C5          1.2788   -0.3877    0.6167 C.ar      1 <0>        -0.1919
      6 C6          0.0747    0.2892    0.6098 C.ar      1 <0>        -0.0671
      7 C7          1.4592   -1.5973    1.4973 C.3       1 <0>         0.5051
      8 F1          0.2783   -1.8369    2.2081 F         1 <0>        -0.1681
      9 F2          1.7604   -2.7102    0.7049 F         1 <0>        -0.1811
     10 F3          2.5062   -1.3677    2.3963 F         1 <0>        -0.1740
     11 N1          3.5433   -0.6361   -0.1847 N.pl3     1 <0>        -0.6382
     12 C8          4.7009    0.0515   -0.2454 C.2       1 <0>         0.5539
     13 S1          4.6803    1.7633   -0.2542 S.2       1 <0>        -0.5477
     14 N2          5.8747   -0.6086   -0.2991 N.pl3     1 <0>        -0.4577
     15 N3          5.8916   -2.0095   -0.2919 N.am      1 <0>        -0.5524
     16 C9          7.0654   -2.6695   -0.3457 C.2       1 <0>         0.5312
     17 O1          8.1071   -2.0508   -0.4003 O.2       1 <0>        -0.5055
     18 C10         7.0836   -4.1764   -0.3379 C.3       1 <0>        -0.1125
     19 H1          6.6185   -4.5411    0.5779 H         1 <0>         0.1146
     20 C11         8.5305   -4.6702   -0.4076 C.3       1 <0>        -0.1022
     21 C12         8.5518   -6.1999   -0.3667 C.3       1 <0>        -0.1337
     22 C13         7.7943   -6.7497   -1.5794 C.3       1 <0>         0.0844
     23 N4          6.4464   -6.1654   -1.5998 N.am      1 <0>        -0.6033
     24 C14         6.3088   -4.7033   -1.5498 C.3       1 <0>         0.1198
     25 C15         5.3563   -6.9554   -1.6632 C.2       1 <0>         0.6072
     26 O2          4.2491   -6.4585   -1.7534 O.2       1 <0>        -0.5171
     27 C16         5.5044   -8.4139   -1.6235 C.2       1 <0>        -0.0873
     28 C17         4.4876   -9.3219   -1.5459 C.2       1 <0>        -0.1085
     29 C18         5.0819  -10.5934   -1.5344 C.2       1 <0>        -0.2224
     30 C19         6.4186  -10.4082   -1.6045 C.2       1 <0>        -0.0082
     31 O3          6.6690   -9.0939   -1.6632 O.3       1 <0>        -0.1591
     32 H2         -1.0326    1.9289   -0.1984 H         1 <0>         0.1401
     33 H3          0.8128    2.7015   -1.6320 H         1 <0>         0.1416
     34 H4          2.9622    1.5032   -1.6275 H         1 <0>         0.1631
     35 H5         -0.7376   -0.0487    1.2362 H         1 <0>         0.1448
     36 H6          3.5565   -1.6049   -0.1380 H         1 <0>         0.4026
     37 H7          6.7079   -0.1137   -0.3428 H         1 <0>         0.4635
     38 H8          5.0585   -2.5043   -0.2482 H         1 <0>         0.4213
     39 H9          8.9876   -4.3253   -1.3351 H         1 <0>         0.0798
     40 H10         9.0899   -4.2764    0.4410 H         1 <0>         0.0826
     41 H11         9.5836   -6.5502   -0.3928 H         1 <0>         0.0896
     42 H12         8.0726   -6.5460    0.5491 H         1 <0>         0.0720
     43 H13         8.3232   -6.4803   -2.4936 H         1 <0>         0.0782
     44 H14         7.7211   -7.8346   -1.5034 H         1 <0>         0.1189
     45 H15         5.2559   -4.4380   -1.4540 H         1 <0>         0.0982
     46 H16         6.7161   -4.2670   -2.4619 H         1 <0>         0.0843
     47 H17         3.4307   -9.1039   -1.5020 H         1 <0>         0.1616
     48 H18         4.5676  -11.5415   -1.4794 H         1 <0>         0.1590
     49 H19         7.1623  -11.1913   -1.6151 H         1 <0>         0.2119
@<TRIPOS>BOND
     1    1    6 ar
     2    1    2 ar
     3    1   32 1
     4    2    3 ar
     5    2   33 1
     6    3    4 ar
     7    3   34 1
     8    4    5 ar
     9    4   11 1
    10    5    6 ar
    11    5    7 1
    12    6   35 1
    13    7    8 1
    14    7    9 1
    15    7   10 1
    16   11   12 1
    17   11   36 1
    18   12   13 2
    19   12   14 1
    20   14   15 1
    21   14   37 1
    22   15   16 am
    23   15   38 1
    24   16   17 2
    25   16   18 1
    26   18   19 1
    27   18   24 1
    28   18   20 1
    29   20   21 1
    30   20   39 1
    31   20   40 1
    32   21   22 1
    33   21   41 1
    34   21   42 1
    35   22   23 1
    36   22   43 1
    37   22   44 1
    38   23   24 1
    39   23   25 am
    40   24   45 1
    41   24   46 1
    42   25   26 2
    43   25   27 1
    44   27   31 1
    45   27   28 2
    46   28   29 1
    47   28   47 1
    48   29   30 2
    49   29   48 1
    50   30   31 1
    51   30   49 1
@<TRIPOS>MOLECULE
ZINC09348709
   49    52     0     0     0
SMALL
USER_CHARGES

@<TRIPOS>ATOM
      1 C1          7.4856    2.7085   -2.5330 C.ar      1 <0>        -0.1085
      2 C2          7.9020    1.3974   -2.6690 C.ar      1 <0>        -0.1224
      3 C3          7.2058    0.3823   -2.0399 C.ar      1 <0>        -0.0971
      4 C4          6.0935    0.6784   -1.2744 C.ar      1 <0>        -0.0976
      5 C5          5.6777    1.9896   -1.1376 C.ar      1 <0>        -0.0935
      6 C6          6.3730    3.0045   -1.7679 C.ar      1 <0>        -0.1213
      7 C7          5.3339   -0.4284   -0.5894 C.3       1 <0>         0.1038
      8 O1          5.8780   -0.6434    0.7144 O.3       1 <0>        -0.3411
      9 C8          5.3060   -1.6091    1.4659 C.2       1 <0>         0.5470
     10 O2          4.3697   -2.2508    1.0236 O.2       1 <0>        -0.4958
     11 C9          5.7900   -1.8731    2.7551 C.2       1 <0>        -0.3918
     12 C10         6.9209   -2.6116    2.9082 C.2       1 <0>         0.4418
     13 O3          7.4133   -2.8837    4.1275 O.3       1 <0>        -0.2113
     14 C11         6.6134   -2.7859    5.2176 C.2       1 <0>        -0.0611
     15 C12         6.9868   -3.4606    6.4152 C.2       1 <0>         0.4141
     16 O4          8.0125   -4.1218    6.4717 O.2       1 <0>        -0.4578
     17 C13         6.1321   -3.3408    7.5394 C.2       1 <0>        -0.2680
     18 C14         5.0123   -2.6005    7.4244 C.2       1 <0>         0.1243
     19 O5          4.6921   -1.9834    6.2875 O.3       1 <0>        -0.1834
     20 C15         5.4730   -2.0660    5.1986 C.2       1 <0>         0.0958
     21 C16         5.0549   -1.3305    3.9479 C.3       1 <0>         0.1063
     22 H1          3.9825   -1.4567    3.7988 H         1 <0>         0.1165
     23 C17         5.3643    0.1366    4.0993 C.ar      1 <0>        -0.1006
     24 C18         6.6698    0.5516    4.2854 C.ar      1 <0>        -0.0657
     25 C19         6.9548    1.8967    4.4240 C.ar      1 <0>        -0.1486
     26 C20         5.9321    2.8290    4.3764 C.ar      1 <0>         0.1068
     27 C21         4.6250    2.4122    4.1900 C.ar      1 <0>        -0.1512
     28 C22         4.3430    1.0669    4.0464 C.ar      1 <0>        -0.0724
     29 F1          6.2095    4.1442    4.5122 F         1 <0>        -0.1373
     30 C23         4.0966   -2.4670    8.6138 C.3       1 <0>         0.1304
     31 O6          4.6330   -3.2056    9.7132 O.3       1 <0>        -0.5587
     32 N1          7.5697   -3.0861    1.7996 N.pl3     1 <0>        -0.8211
     33 H2          8.0322    3.5020   -3.0208 H         1 <0>         0.1248
     34 H3          8.7710    1.1661   -3.2671 H         1 <0>         0.1256
     35 H4          7.5307   -0.6421   -2.1468 H         1 <0>         0.1229
     36 H5          4.8084    2.2208   -0.5398 H         1 <0>         0.1235
     37 H6          6.0479    4.0289   -1.6613 H         1 <0>         0.1257
     38 H7          4.2838   -0.1492   -0.5034 H         1 <0>         0.0781
     39 H8          5.4196   -1.3441   -1.1744 H         1 <0>         0.0765
     40 H9          6.3734   -3.8335    8.4696 H         1 <0>         0.1826
     41 H10         7.4672   -0.1758    4.3228 H         1 <0>         0.1262
     42 H11         7.9747    2.2206    4.5697 H         1 <0>         0.1375
     43 H12         3.8265    3.1384    4.1531 H         1 <0>         0.1390
     44 H13         3.3241    0.7419    3.8965 H         1 <0>         0.1357
     45 H14         4.0102   -1.4160    8.8898 H         1 <0>         0.0893
     46 H15         3.1114   -2.8579    8.3596 H         1 <0>         0.0894
     47 H16         4.0940   -3.1644   10.5151 H         1 <0>         0.4016
     48 H17         7.2661   -2.8319    0.9141 H         1 <0>         0.4251
     49 H18         8.3328   -3.6764    1.8998 H         1 <0>         0.4160
@<TRIPOS>BOND
     1    1    6 ar
     2    1    2 ar
     3    1   33 1
     4    2    3 ar
     5    2   34 1
     6    3    4 ar
     7    3   35 1
     8    4    5 ar
     9    4    7 1
    10    5    6 ar
    11    5   36 1
    12    6   37 1
    13    7    8 1
    14    7   38 1
    15    7   39 1
    16    8    9 1
    17    9   10 2
    18    9   11 1
    19   11   21 1
    20   11   12 2
    21   12   13 1
    22   12   32 1
    23   13   14 1
    24   14   20 2
    25   14   15 1
    26   15   16 2
    27   15   17 1
    28   17   18 2
    29   17   40 1
    30   18   19 1
    31   18   30 1
    32   19   20 1
    33   20   21 1
    34   21   22 1
    35   21   23 1
    36   23   28 ar
    37   23   24 ar
    38   24   25 ar
    39   24   41 1
    40   25   26 ar
    41   25   42 1
    42   26   27 ar
    43   26   29 1
    44   27   28 ar
    45   27   43 1
    46   28   44 1
    47   30   31 1
    48   30   45 1
    49   30   46 1
    50   31   47 1
    51   32   48 1
    52   32   49 1
@<TRIPOS>MOLECULE
ZINC11843251
   67    70     0     0     0
SMALL
USER_CHARGES
3-ethyl-N-[[1-[(2-fluorophenyl)methyl]-4-piperidyl]methyl]-5-methyl-N-[[(2R)-tetrahydrofuran-2-yl]methyl]isoxazole-4-carboxamide
@<TRIPOS>ATOM
      1 C1         -2.6611    4.0160   -3.0773 C.3       1 <0>        -0.1492
      2 C2         -1.2205    4.1568   -2.5814 C.3       1 <0>        -0.0518
      3 C3         -1.2259    4.5158   -1.1178 C.2       1 <0>         0.0592
      4 C4         -1.2140    3.5925    0.0273 C.2       1 <0>        -0.2562
      5 C5         -1.2201    4.4429    1.1060 C.2       1 <0>         0.0159
      6 O1         -1.2386    5.6813    0.6080 O.3       1 <0>         0.1053
      7 N1         -1.2447    5.7075   -0.5983 N.2       1 <0>        -0.3423
      8 C6         -1.2081    4.0550    2.5622 C.3       1 <0>        -0.0804
      9 C7         -1.1940    2.1187    0.0192 C.2       1 <0>         0.6060
     10 O2         -2.2388    1.4964    0.0208 O.2       1 <0>        -0.5115
     11 N2         -0.0178    1.4608    0.0101 N.am      1 <0>        -0.5974
     12 C8          0.0021   -0.0041    0.0020 C.3       1 <0>         0.1229
     13 C9          0.0228   -0.5218    1.4416 C.3       1 <0>        -0.1175
     14 C10         1.3330   -0.1059    2.1162 C.3       1 <0>        -0.1463
     15 C11         1.3752   -0.6794    3.5345 C.3       1 <0>        -0.0029
     16 C12         0.0034   -2.5653    2.8760 C.3       1 <0>         0.0003
     17 C13        -0.0791   -2.0496    1.4375 C.3       1 <0>        -0.1404
     18 C14         1.4506   -2.7361    4.8091 C.3       1 <0>         0.0499
     19 C15         2.8571   -2.4860    5.2890 C.ar      1 <0>        -0.1930
     20 C16         3.0972   -1.5306    6.2584 C.ar      1 <0>        -0.0638
     21 C17         4.3871   -1.3013    6.6992 C.ar      1 <0>        -0.1207
     22 C18         5.4385   -2.0277    6.1712 C.ar      1 <0>        -0.0565
     23 C19         5.2009   -2.9837    5.2023 C.ar      1 <0>        -0.1444
     24 C20         3.9085   -3.2172    4.7631 C.ar      1 <0>         0.1143
     25 F1          3.6743   -4.1553    3.8195 F         1 <0>        -0.1339
     26 C21         1.2408    2.2105    0.0021 C.3       1 <0>         0.1093
     27 C22         1.6652    2.4792   -1.4431 C.3       1 <0>         0.0504
     28 H1          0.8890    3.0453   -1.9580 H         1 <0>         0.0771
     29 C23         2.9890    3.2678   -1.4625 C.3       1 <0>        -0.1516
     30 C24         3.9578    2.3634   -2.2625 C.3       1 <0>        -0.1542
     31 C25         2.9789    1.4600   -3.0550 C.3       1 <0>         0.0449
     32 O3          1.8992    1.2347   -2.1233 O.3       1 <0>        -0.3698
     33 H2         -3.1876    4.9600   -2.9367 H         1 <0>         0.0617
     34 H3         -2.6572    3.7563   -4.1359 H         1 <0>         0.0714
     35 H4         -3.1647    3.2315   -2.5125 H         1 <0>         0.0614
     36 H5         -0.7169    4.9413   -3.1461 H         1 <0>         0.0900
     37 H6         -0.6940    3.2128   -2.7220 H         1 <0>         0.0866
     38 H7         -0.1777    3.9750    2.9084 H         1 <0>         0.0923
     39 H8         -1.7292    4.8147    3.1449 H         1 <0>         0.0967
     40 H9         -1.7088    3.0948    2.6865 H         1 <0>         0.0905
     41 H10        -0.8878   -0.3767   -0.5053 H         1 <0>         0.0951
     42 H11         0.8920   -0.3525   -0.5222 H         1 <0>         0.0969
     43 H12        -0.8194   -0.1020    1.9918 H         1 <0>         0.0941
     44 H13         2.1759   -0.4923    1.5432 H         1 <0>         0.0894
     45 H14         1.3903    0.9817    2.1605 H         1 <0>         0.1109
     46 H15         0.5405   -0.2809    4.1113 H         1 <0>         0.1310
     47 H16         2.3137   -0.3980    4.0120 H         1 <0>         0.1265
     48 H17        -0.8249   -2.1581    3.4559 H         1 <0>         0.1327
     49 H18        -0.0543   -3.6538    2.8754 H         1 <0>         0.1311
     50 H19        -1.0300   -2.3497    0.9973 H         1 <0>         0.1177
     51 H20         0.7406   -2.4673    0.8530 H         1 <0>         0.0910
     52 H21         0.7436   -2.2832    5.5041 H         1 <0>         0.1433
     53 H22         1.2704   -3.8098    4.7557 H         1 <0>         0.1377
     54 H23         2.2767   -0.9626    6.6715 H         1 <0>         0.1436
     55 H24         4.5738   -0.5546    7.4567 H         1 <0>         0.1448
     56 H25         6.4459   -1.8480    6.5166 H         1 <0>         0.1473
     57 H26         6.0223   -3.5512    4.7904 H         1 <0>         0.1494
     58 H27         1.1025    3.1582    0.5224 H         1 <0>         0.0914
     59 H28         2.0133    1.6290    0.5054 H         1 <0>         0.0906
     60 H29         2.8557    4.2246   -1.9673 H         1 <0>         0.0813
     61 H30         3.3580    3.4188   -0.4480 H         1 <0>         0.0790
     62 H31         4.5742    2.9559   -2.9385 H         1 <0>         0.0849
     63 H32         4.5792    1.7699   -1.5918 H         1 <0>         0.0770
     64 H33         2.6167    1.9747   -3.9450 H         1 <0>         0.0641
     65 H34         3.4583    0.5193   -3.3255 H         1 <0>         0.0961
     66 N3          1.2979   -2.1538    3.4598 N.4       1 <0>        -0.3943
     67 H35         2.0577   -2.4971    2.8606 H         1 <0>         0.4250
@<TRIPOS>BOND
     1    1    2 1
     2    1   33 1
     3    1   34 1
     4    1   35 1
     5    2    3 1
     6    2   36 1
     7    2   37 1
     8    3    7 2
     9    3    4 1
    10    4    5 2
    11    4    9 1
    12    5    6 1
    13    5    8 1
    14    6    7 1
    15    8   38 1
    16    8   39 1
    17    8   40 1
    18    9   10 2
    19    9   11 am
    20   11   12 1
    21   11   26 1
    22   12   13 1
    23   12   41 1
    24   12   42 1
    25   13   17 1
    26   13   14 1
    27   13   43 1
    28   14   15 1
    29   14   44 1
    30   14   45 1
    31   15   46 1
    32   15   47 1
    33   15   66 1
    34   16   17 1
    35   16   48 1
    36   16   49 1
    37   16   66 1
    38   17   50 1
    39   17   51 1
    40   18   19 1
    41   18   52 1
    42   18   53 1
    43   18   66 1
    44   19   24 ar
    45   19   20 ar
    46   20   21 ar
    47   20   54 1
    48   21   22 ar
    49   21   55 1
    50   22   23 ar
    51   22   56 1
    52   23   24 ar
    53   23   57 1
    54   24   25 1
    55   26   27 1
    56   26   58 1
    57   26   59 1
    58   27   28 1
    59   27   32 1
    60   27   29 1
    61   29   30 1
    62   29   60 1
    63   29   61 1
    64   30   31 1
    65   30   62 1
    66   30   63 1
    67   31   32 1
    68   31   64 1
    69   31   65 1
    70   66   67 1
@<TRIPOS>MOLECULE
ZINC22930855
   50    53     0     0     0
SMALL
USER_CHARGES

@<TRIPOS>ATOM
      1 C1         -0.0173    1.4248    0.0099 C.3       1 <0>         0.0235
      2 O1          0.0021   -0.0041    0.0020 O.3       1 <0>        -0.3091
      3 C2          0.6061   -0.6074   -1.0563 C.ar      1 <0>         0.1553
      4 C3          1.1728    0.1592   -2.0620 C.ar      1 <0>        -0.1896
      5 C4          1.7866   -0.4551   -3.1373 C.ar      1 <0>        -0.0514
      6 C5          1.8373   -1.8360   -3.2132 C.ar      1 <0>        -0.0654
      7 C6          1.2739   -2.6075   -2.2133 C.ar      1 <0>        -0.0484
      8 C7          0.6616   -1.9970   -1.1288 C.ar      1 <0>         0.0860
      9 N1          0.0939   -2.7778   -0.1101 N.am      1 <0>        -0.5164
     10 C8         -1.1776   -3.1958   -0.1410 C.2       1 <0>         0.5353
     11 O2         -1.9730   -2.9601   -1.0251 O.2       1 <0>        -0.4664
     12 C9         -1.4644   -4.0094    1.1021 C.3       1 <0>        -0.1515
     13 C10        -0.1241   -3.9890    1.8648 C.3       1 <0>         0.0526
     14 H1         -0.2430   -3.5100    2.8367 H         1 <0>         0.1031
     15 C11         0.7808   -3.1706    0.9697 C.2       1 <0>         0.5453
     16 O3          1.9429   -2.9098    1.1959 O.2       1 <0>        -0.4607
     17 N2          0.4019   -5.3515    2.0225 N.3       1 <0>        -0.5231
     18 C12        -0.5758   -6.2189    2.6942 C.3       1 <0>         0.0524
     19 C13        -0.0234   -7.6444    2.7678 C.3       1 <0>         0.0582
     20 N3          1.2543   -7.6349    3.4938 N.3       1 <0>        -0.5355
     21 C14         2.2320   -6.7674    2.8221 C.3       1 <0>         0.0527
     22 C15         1.6795   -5.3420    2.7485 C.3       1 <0>         0.0478
     23 C16         1.7803   -8.9974    3.6515 C.3       1 <0>         0.1364
     24 C17         2.9496   -8.9776    4.6020 C.2       1 <0>        -0.1223
     25 C18         2.9574   -9.1309    5.9485 C.2       1 <0>        -0.1413
     26 C19         4.1631   -9.0754    6.6228 C.2       1 <0>        -0.1081
     27 C20         5.3023   -8.8691    5.9161 C.2       1 <0>        -0.1769
     28 S1          4.6844   -8.7537    4.2452 S.3       1 <0>         0.0913
     29 Br1         7.0836   -8.7438    6.5385 Br        1 <0>         0.0381
     30 Cl1         2.6092   -2.6014   -4.5667 Cl        1 <0>        -0.0550
     31 H2          1.0053    1.8021    0.0021 H         1 <0>         0.0618
     32 H3         -0.5445    1.7859   -0.8732 H         1 <0>         0.0620
     33 H4         -0.5275    1.7763    0.9067 H         1 <0>         0.1062
     34 H5          1.1345    1.2370   -2.0057 H         1 <0>         0.1485
     35 H6          2.2274    0.1439   -3.9204 H         1 <0>         0.1458
     36 H7          1.3140   -3.6850   -2.2749 H         1 <0>         0.1453
     37 H8         -2.2501   -3.5407    1.6945 H         1 <0>         0.1280
     38 H9         -1.7396   -5.0304    0.8373 H         1 <0>         0.1343
     39 H10        -0.7593   -5.8475    3.7024 H         1 <0>         0.0543
     40 H11        -1.5091   -6.2192    2.1310 H         1 <0>         0.0901
     41 H12        -0.7344   -8.2834    3.2914 H         1 <0>         0.0884
     42 H13         0.1344   -8.0257    1.7589 H         1 <0>         0.0490
     43 H14         3.1652   -6.7671    3.3853 H         1 <0>         0.0862
     44 H15         2.4154   -7.1388    1.8139 H         1 <0>         0.0470
     45 H16         2.3906   -4.7030    2.2249 H         1 <0>         0.1008
     46 H17         1.5217   -4.9606    3.7574 H         1 <0>         0.0512
     47 H18         0.9990   -9.6446    4.0502 H         1 <0>         0.1038
     48 H19         2.1060   -9.3756    2.6825 H         1 <0>         0.0561
     49 H20         2.0355   -9.2937    6.4868 H         1 <0>         0.1424
     50 H21         4.1973   -9.1942    7.6957 H         1 <0>         0.1417
@<TRIPOS>BOND
     1    1    2 1
     2    1   31 1
     3    1   32 1
     4    1   33 1
     5    2    3 1
     6    3    8 ar
     7    3    4 ar
     8    4    5 ar
     9    4   34 1
    10    5    6 ar
    11    5   35 1
    12    6    7 ar
    13    6   30 1
    14    7    8 ar
    15    7   36 1
    16    8    9 1
    17    9   15 am
    18    9   10 am
    19   10   11 2
    20   10   12 1
    21   12   13 1
    22   12   37 1
    23   12   38 1
    24   13   14 1
    25   13   15 1
    26   13   17 1
    27   15   16 2
    28   17   22 1
    29   17   18 1
    30   18   19 1
    31   18   39 1
    32   18   40 1
    33   19   20 1
    34   19   41 1
    35   19   42 1
    36   20   21 1
    37   20   23 1
    38   21   22 1
    39   21   43 1
    40   21   44 1
    41   22   45 1
    42   22   46 1
    43   23   24 1
    44   23   47 1
    45   23   48 1
    46   24   28 1
    47   24   25 2
    48   25   26 1
    49   25   49 1
    50   26   27 2
    51   26   50 1
    52   27   28 1
    53   27   29 1
@<TRIPOS>MOLECULE
ZINC35554875
   70    74     0     0     0
SMALL
USER_CHARGES

@<TRIPOS>ATOM
      1 C1          2.0444    1.1136   -2.0319 C.3       1 <0>        -0.1542
      2 C2          2.1004   -0.4122   -1.9344 C.3       1 <0>         0.0602
      3 O1          2.2134   -0.7982   -0.5632 O.3       1 <0>        -0.3504
      4 C3          2.2746   -2.1137   -0.3034 C.2       1 <0>         0.4637
      5 O2          2.2334   -2.9111   -1.2103 O.2       1 <0>        -0.5036
      6 C4          2.3945   -2.5960    1.1192 C.3       1 <0>        -0.0812
      7 C5          3.6751   -2.0349    1.7416 C.3       1 <0>        -0.1243
      8 C6          3.7760   -2.4989    3.1981 C.3       1 <0>         0.1134
      9 N1          3.6790   -3.9644    3.2353 N.am      1 <0>        -0.6074
     10 C7          2.5317   -4.6132    2.5861 C.3       1 <0>         0.1010
     11 C8          2.4447   -4.1255    1.1365 C.3       1 <0>        -0.1197
     12 C9          4.6248   -4.6998    3.8528 C.2       1 <0>         0.5210
     13 O3          5.6095   -4.1600    4.3109 O.2       1 <0>        -0.5261
     14 C10         4.4588   -6.1927    3.9739 C.3       1 <0>        -0.1248
     15 H1          4.0127   -6.5840    3.0596 H         1 <0>         0.1186
     16 C11         3.5493   -6.5094    5.1605 C.3       1 <0>        -0.0602
     17 C12         4.2288   -6.0908    6.4383 C.ar      1 <0>        -0.1554
     18 C13         3.4569   -5.7770    7.5433 C.ar      1 <0>        -0.0705
     19 C14         4.0606   -5.3864    8.7235 C.ar      1 <0>        -0.1572
     20 C15         5.4389   -5.3078    8.8045 C.ar      1 <0>        -0.0721
     21 C16         6.2143   -5.6217    7.7067 C.ar      1 <0>        -0.1851
     22 C17         5.6086   -6.0179    6.5180 C.ar      1 <0>         0.2237
     23 N2          6.4243   -6.3430    5.4224 N.pl3     1 <0>        -0.6184
     24 C18         5.8293   -6.8431    4.1928 C.3       1 <0>         0.1720
     25 H2          5.6844   -7.9186    4.2950 H         1 <0>         0.0916
     26 C19         6.6903   -6.6046    2.9628 C.3       1 <0>        -0.0187
     27 N3          8.1122   -6.7932    3.2463 N.4       1 <0>        -0.3778
     28 C20         8.5285   -5.8155    4.2630 C.3       1 <0>        -0.0218
     29 C21         7.8718   -6.1883    5.5898 C.3       1 <0>         0.1087
     30 C22         8.8905   -6.5870    2.0176 C.3       1 <0>         0.0475
     31 C23        10.3403   -6.9013    2.2827 C.ar      1 <0>        -0.1752
     32 C24        11.1937   -5.9061    2.7215 C.ar      1 <0>        -0.0658
     33 C25        12.5234   -6.1932    2.9654 C.ar      1 <0>        -0.1499
     34 C26        13.0007   -7.4782    2.7700 C.ar      1 <0>         0.1414
     35 C27        12.1451   -8.4741    2.3305 C.ar      1 <0>        -0.1499
     36 C28        10.8146   -8.1858    2.0923 C.ar      1 <0>        -0.0602
     37 F1         14.3005   -7.7599    3.0076 F         1 <0>        -0.1216
     38 H3          2.9548    1.5383   -1.6088 H         1 <0>         0.0671
     39 H4          1.9582    1.4080   -3.0778 H         1 <0>         0.0831
     40 H5          1.1805    1.4816   -1.4784 H         1 <0>         0.0688
     41 H6          1.1900   -0.8369   -2.3575 H         1 <0>         0.0700
     42 H7          2.9643   -0.7802   -2.4879 H         1 <0>         0.0679
     43 H8          1.5326   -2.2545    1.6924 H         1 <0>         0.1156
     44 H9          4.5392   -2.3961    1.1840 H         1 <0>         0.0711
     45 H10         3.6490   -0.9457    1.7078 H         1 <0>         0.0953
     46 H11         4.7326   -2.1852    3.6160 H         1 <0>         0.1004
     47 H12         2.9616   -2.0639    3.7774 H         1 <0>         0.0782
     48 H13         2.6672   -5.6946    2.6003 H         1 <0>         0.0934
     49 H14         1.6158   -4.3507    3.1156 H         1 <0>         0.0826
     50 H15         1.5429   -4.5244    0.6720 H         1 <0>         0.0931
     51 H16         3.3203   -4.4670    0.5846 H         1 <0>         0.0767
     52 H17         2.6100   -5.9667    5.0536 H         1 <0>         0.0904
     53 H18         3.3491   -7.5805    5.1892 H         1 <0>         0.0935
     54 H19         2.3803   -5.8377    7.4832 H         1 <0>         0.1247
     55 H20         3.4550   -5.1420    9.5837 H         1 <0>         0.1248
     56 H21         5.9087   -5.0003    9.7271 H         1 <0>         0.1260
     57 H22         7.2907   -5.5607    7.7703 H         1 <0>         0.1234
     58 H23         6.3896   -7.3000    2.1792 H         1 <0>         0.1422
     59 H24         6.5310   -5.5854    2.6106 H         1 <0>         0.1324
     60 H25         9.6128   -5.8390    4.3716 H         1 <0>         0.1404
     61 H26         8.2089   -4.8173    3.9638 H         1 <0>         0.1417
     62 H27         8.0672   -5.4037    6.3207 H         1 <0>         0.1208
     63 H28         8.2944   -7.1267    5.9489 H         1 <0>         0.0786
     64 H29         8.5136   -7.2444    1.2342 H         1 <0>         0.1402
     65 H30         8.7963   -5.5493    1.6977 H         1 <0>         0.1375
     66 H31        10.8213   -4.9038    2.8735 H         1 <0>         0.1425
     67 H32        13.1900   -5.4156    3.3078 H         1 <0>         0.1505
     68 H33        12.5164   -9.4766    2.1774 H         1 <0>         0.1503
     69 H34        10.1460   -8.9634    1.7538 H         1 <0>         0.1426
     70 H35         8.2666   -7.7280    3.5932 H         1 <0>         0.4231
@<TRIPOS>BOND
     1    1    2 1
     2    1   38 1
     3    1   39 1
     4    1   40 1
     5    2    3 1
     6    2   41 1
     7    2   42 1
     8    3    4 1
     9    4    5 2
    10    4    6 1
    11    6   11 1
    12    6    7 1
    13    6   43 1
    14    7    8 1
    15    7   44 1
    16    7   45 1
    17    8    9 1
    18    8   46 1
    19    8   47 1
    20    9   10 1
    21    9   12 am
    22   10   11 1
    23   10   48 1
    24   10   49 1
    25   11   50 1
    26   11   51 1
    27   12   13 2
    28   12   14 1
    29   14   15 1
    30   14   24 1
    31   14   16 1
    32   16   17 1
    33   16   52 1
    34   16   53 1
    35   17   22 ar
    36   17   18 ar
    37   18   19 ar
    38   18   54 1
    39   19   20 ar
    40   19   55 1
    41   20   21 ar
    42   20   56 1
    43   21   22 ar
    44   21   57 1
    45   22   23 1
    46   23   29 1
    47   23   24 1
    48   24   25 1
    49   24   26 1
    50   26   27 1
    51   26   58 1
    52   26   59 1
    53   27   28 1
    54   27   30 1
    55   27   70 1
    56   28   29 1
    57   28   60 1
    58   28   61 1
    59   29   62 1
    60   29   63 1
    61   30   31 1
    62   30   64 1
    63   30   65 1
    64   31   36 ar
    65   31   32 ar
    66   32   33 ar
    67   32   66 1
    68   33   34 ar
    69   33   67 1
    70   34   35 ar
    71   34   37 1
    72   35   36 ar
    73   35   68 1
    74   36   69 1
@<TRIPOS>MOLECULE
ZINC44910472
   66    69     0     0     0
SMALL
USER_CHARGES

@<TRIPOS>ATOM
      1 C1          0.2181    1.3038    3.4214 C.3       1 <0>        -0.1319
      2 C2          0.2276   -0.0190    2.6996 C.ar      1 <0>        -0.0429
      3 C3          0.3916   -0.0565    1.3275 C.ar      1 <0>        -0.1173
      4 C4          0.4002   -1.2700    0.6654 C.ar      1 <0>        -0.0870
      5 C5          0.2454   -2.4459    1.3754 C.ar      1 <0>        -0.1718
      6 C6          0.0823   -2.4084    2.7476 C.ar      1 <0>        -0.0913
      7 C7          0.0779   -1.1953    3.4102 C.ar      1 <0>        -0.1179
      8 C8          0.2538   -3.7687    0.6534 C.3       1 <0>         0.0464
      9 N1          1.6293   -4.2797    0.5837 N.4       1 <0>        -0.3836
     10 C9          2.1130   -4.5649    1.9399 C.3       1 <0>        -0.0100
     11 C10         3.5726   -5.0206    1.8796 C.3       1 <0>        -0.1293
     12 C11         3.6714   -6.2868    1.0240 C.3       1 <0>        -0.1253
     13 C12         3.0956   -5.9983   -0.3655 C.3       1 <0>        -0.1371
     14 C13         1.6537   -5.5064   -0.2220 C.3       1 <0>        -0.0035
     15 C14         5.1158   -6.6969    0.8957 C.2       1 <0>         0.5208
     16 O1          5.9835   -5.8514    0.8388 O.2       1 <0>        -0.5253
     17 N2          5.4434   -8.0032    0.8441 N.am      1 <0>        -0.6044
     18 C15         4.3982   -9.0347    0.7859 C.3       1 <0>         0.0888
     19 C16         4.6480   -9.9166   -0.4438 C.3       1 <0>         0.1022
     20 N3          6.0568  -10.3350   -0.4433 N.pl3     1 <0>        -0.9998
     21 C17         7.1020   -9.3035   -0.3851 C.3       1 <0>         0.1032
     22 C18         6.8523   -8.4214    0.8390 C.3       1 <0>         0.0970
     23 S1          6.4593  -11.9401   -0.5066 S.o2      1 <0>         2.6895
     24 O2          7.7588  -12.0555    0.0568 O.2       1 <0>        -0.9466
     25 O3          5.3430  -12.6590   -0.0006 O.2       1 <0>        -0.9501
     26 C19         6.6079  -12.3732   -2.2081 C.ar      1 <0>        -0.6872
     27 C20         5.5038  -12.8278   -2.9046 C.ar      1 <0>        -0.0178
     28 C21         5.6203  -13.1676   -4.2394 C.ar      1 <0>        -0.1419
     29 C22         6.8409  -13.0523   -4.8780 C.ar      1 <0>        -0.0228
     30 C23         7.9449  -12.5968   -4.1817 C.ar      1 <0>        -0.1404
     31 C24         7.8273  -12.2529   -2.8480 C.ar      1 <0>        -0.0159
     32 C25         6.9682  -13.4236   -6.3329 C.3       1 <0>        -0.1292
     33 H1          1.2349    1.5650    3.7146 H         1 <0>         0.0829
     34 H2         -0.1792    2.0750    2.7615 H         1 <0>         0.0765
     35 H3         -0.4082    1.2282    4.3103 H         1 <0>         0.0764
     36 H4          0.5126    0.8622    0.7728 H         1 <0>         0.1355
     37 H5          0.5277   -1.2992   -0.4067 H         1 <0>         0.1311
     38 H6         -0.0390   -3.3272    3.3022 H         1 <0>         0.1310
     39 H7         -0.0458   -1.1662    4.4827 H         1 <0>         0.1356
     40 H8         -0.3714   -4.4807    1.1921 H         1 <0>         0.1353
     41 H9         -0.1354   -3.6343   -0.3558 H         1 <0>         0.1369
     42 H10         2.0391   -3.6637    2.5485 H         1 <0>         0.1363
     43 H11         1.5049   -5.3530    2.3839 H         1 <0>         0.1302
     44 H12         4.1817   -4.2330    1.4360 H         1 <0>         0.1020
     45 H13         3.9293   -5.2335    2.8873 H         1 <0>         0.1150
     46 H14         3.1037   -7.0897    1.4942 H         1 <0>         0.1120
     47 H15         3.6949   -5.2311   -0.8557 H         1 <0>         0.0987
     48 H16         3.1114   -6.9101   -0.9625 H         1 <0>         0.1163
     49 H17         1.0553   -6.2744    0.2681 H         1 <0>         0.1327
     50 H18         1.2407   -5.3002   -1.2094 H         1 <0>         0.1365
     51 H19         4.4364   -9.6455    1.6879 H         1 <0>         0.0871
     52 H20         3.4203   -8.5604    0.7034 H         1 <0>         0.0967
     53 H21         4.0052  -10.7958   -0.4000 H         1 <0>         0.1109
     54 H22         4.4351   -9.3495   -1.3500 H         1 <0>         0.0764
     55 H23         8.0799   -9.7778   -0.3026 H         1 <0>         0.1118
     56 H24         7.0638   -8.6927   -1.2871 H         1 <0>         0.0783
     57 H25         7.4947   -7.5421    0.7915 H         1 <0>         0.1110
     58 H26         7.0692   -8.9874    1.7448 H         1 <0>         0.0833
     59 H27         4.5501  -12.9179   -2.4057 H         1 <0>         0.1386
     60 H28         4.7578  -13.5234   -4.7834 H         1 <0>         0.1347
     61 H29         8.8986  -12.5070   -4.6805 H         1 <0>         0.1356
     62 H30         8.6890  -11.8935   -2.3050 H         1 <0>         0.1401
     63 H31         6.7683  -12.5478   -6.9503 H         1 <0>         0.0814
     64 H32         7.9782  -13.7835   -6.5291 H         1 <0>         0.0761
     65 H33         6.2502  -14.2081   -6.5718 H         1 <0>         0.0756
     66 H34         2.2236   -3.5856    0.1559 H         1 <0>         0.4239
@<TRIPOS>BOND
     1    1    2 1
     2    1   33 1
     3    1   34 1
     4    1   35 1
     5    2    7 ar
     6    2    3 ar
     7    3    4 ar
     8    3   36 1
     9    4    5 ar
    10    4   37 1
    11    5    6 ar
    12    5    8 1
    13    6    7 ar
    14    6   38 1
    15    7   39 1
    16    8    9 1
    17    8   40 1
    18    8   41 1
    19    9   14 1
    20    9   10 1
    21    9   66 1
    22   10   11 1
    23   10   42 1
    24   10   43 1
    25   11   12 1
    26   11   44 1
    27   11   45 1
    28   12   13 1
    29   12   15 1
    30   12   46 1
    31   13   14 1
    32   13   47 1
    33   13   48 1
    34   14   49 1
    35   14   50 1
    36   15   16 2
    37   15   17 am
    38   17   22 1
    39   17   18 1
    40   18   19 1
    41   18   51 1
    42   18   52 1
    43   19   20 1
    44   19   53 1
    45   19   54 1
    46   20   21 1
    47   20   23 1
    48   21   22 1
    49   21   55 1
    50   21   56 1
    51   22   57 1
    52   22   58 1
    53   23   24 2
    54   23   25 2
    55   23   26 1
    56   26   31 ar
    57   26   27 ar
    58   27   28 ar
    59   27   59 1
    60   28   29 ar
    61   28   60 1
    62   29   30 ar
    63   29   32 1
    64   30   31 ar
    65   30   61 1
    66   31   62 1
    67   32   63 1
    68   32   64 1
    69   32   65 1
@<TRIPOS>MOLECULE
ZINC63373671
   66    71     0     0     0
SMALL
USER_CHARGES

@<TRIPOS>ATOM
      1 C1         -0.0332    1.5186   -0.0941 C.3       1 <0>        -0.2060
      2 C2         -0.0040    0.0019   -0.2936 C.3       1 <0>         0.1587
      3 C3          0.7151   -0.2133   -1.5875 C.3       1 <0>         0.1095
      4 H1          1.2023    0.7154   -1.8846 H         1 <0>         0.1877
      5 C4          1.7693   -1.2929   -1.4109 C.2       1 <0>         0.0400
      6 C5          1.5928   -2.1592   -2.3980 C.ar      1 <0>        -0.1389
      7 C6          2.3463   -3.3569   -2.8027 C.ar      1 <0>        -0.0077
      8 C7          1.8676   -4.0305   -3.8818 C.ar      1 <0>        -0.1586
      9 C8          0.7276   -3.6388   -4.5907 C.ar      1 <0>         0.0526
     10 C9         -0.0234   -2.5488   -4.2918 C.ar      1 <0>        -0.2045
     11 C10         0.3834   -1.7556   -3.1801 C.ar      1 <0>         0.3415
     12 N1         -0.1293   -0.6840   -2.6850 N.pl3     1 <0>        -0.5349
     13 C11         2.7048   -1.2792   -0.2273 C.3       1 <0>         0.0070
     14 H2          3.2961   -0.3635   -0.2276 H         1 <0>         0.1435
     15 C12         1.8161   -1.3317    1.0182 C.3       1 <0>         0.1227
     16 N2          0.6144   -0.5262    0.9091 N.am      1 <0>        -0.6130
     17 C13        -0.0651   -0.2593    2.0738 C.2       1 <0>         0.5131
     18 O1          0.3936   -0.5498    3.1583 O.2       1 <0>        -0.4705
     19 C14        -1.4137    0.4154    1.9375 C.3       1 <0>         0.0702
     20 N3         -2.1480   -0.2174    0.8261 N.am      1 <0>        -0.5991
     21 C15        -1.4523   -0.4117   -0.3350 C.2       1 <0>         0.5233
     22 O2         -1.9649   -0.8831   -1.3280 O.2       1 <0>        -0.5168
     23 C16        -3.5510   -0.6174    0.9592 C.3       1 <0>         0.1218
     24 C17        -4.4545    0.5437    0.5392 C.3       1 <0>        -0.0912
     25 C18        -5.8977    0.1322    0.6761 C.ar      1 <0>        -0.1052
     26 C19        -6.5499   -0.4636   -0.3873 C.ar      1 <0>        -0.0827
     27 C20        -7.8732   -0.8418   -0.2627 C.ar      1 <0>        -0.1513
     28 C21        -8.5459   -0.6238    0.9277 C.ar      1 <0>         0.1051
     29 C22        -7.8917   -0.0270    1.9920 C.ar      1 <0>        -0.1500
     30 C23        -6.5668    0.3456    1.8669 C.ar      1 <0>        -0.0832
     31 F1         -9.8398   -0.9927    1.0504 F         1 <0>        -0.1348
     32 C24         3.6124   -2.4814   -0.2703 C.ar      1 <0>        -0.1470
     33 C25         3.0902   -3.7486   -0.0958 C.ar      1 <0>        -0.0746
     34 C26         3.9224   -4.8518   -0.1347 C.ar      1 <0>        -0.1535
     35 C27         5.2791   -4.6903   -0.3486 C.ar      1 <0>        -0.0570
     36 C28         5.8060   -3.4256   -0.5240 C.ar      1 <0>        -0.2020
     37 C29         4.9720   -2.3171   -0.4907 C.ar      1 <0>         0.1536
     38 O3          5.4872   -1.0722   -0.6686 O.3       1 <0>        -0.3176
     39 C30         6.8957   -0.9786   -0.8909 C.3       1 <0>         0.0233
     40 H3          0.7697    1.8115    0.5824 H         1 <0>         0.1027
     41 H4          0.1027    2.0141   -1.0554 H         1 <0>         0.0886
     42 H5         -0.9927    1.8105    0.3327 H         1 <0>         0.0965
     43 H6          3.2294   -3.6818   -2.2727 H         1 <0>         0.1701
     44 H7          2.3953   -4.9142   -4.2090 H         1 <0>         0.1536
     45 H8          0.4249   -4.2439   -5.4325 H         1 <0>         0.1579
     46 H9         -0.8961   -2.2923   -4.8740 H         1 <0>         0.1693
     47 H10         1.5111   -2.3645    1.1866 H         1 <0>         0.0797
     48 H11         2.3980   -0.9973    1.8771 H         1 <0>         0.1171
     49 H12        -1.9773    0.2965    2.8629 H         1 <0>         0.1372
     50 H13        -1.2726    1.4754    1.7261 H         1 <0>         0.1272
     51 H14        -3.7455   -1.4787    0.3200 H         1 <0>         0.0938
     52 H15        -3.7568   -0.8811    1.9966 H         1 <0>         0.0956
     53 H16        -4.2600    1.4049    1.1785 H         1 <0>         0.0818
     54 H17        -4.2487    0.8074   -0.4982 H         1 <0>         0.0790
     55 H18        -6.0251   -0.6332   -1.3158 H         1 <0>         0.1311
     56 H19        -8.3826   -1.3069   -1.0937 H         1 <0>         0.1382
     57 H20        -8.4155    0.1439    2.9209 H         1 <0>         0.1397
     58 H21        -6.0550    0.8071    2.6985 H         1 <0>         0.1341
     59 H22         2.0310   -3.8773    0.0714 H         1 <0>         0.1295
     60 H23         3.5124   -5.8415    0.0027 H         1 <0>         0.1352
     61 H24         5.9272   -5.5537   -0.3781 H         1 <0>         0.1365
     62 H25         6.8656   -3.3000   -0.6910 H         1 <0>         0.1393
     63 H26         7.4270   -1.3959   -0.0355 H         1 <0>         0.0636
     64 H27         7.1596   -1.5360   -1.7897 H         1 <0>         0.0616
     65 H28         7.1750    0.0674   -1.0169 H         1 <0>         0.1078
     66 H29        -0.9431   -0.2594   -2.9985 H         1 <0>         0.4601
@<TRIPOS>BOND
     1    1    2 1
     2    1   40 1
     3    1   41 1
     4    1   42 1
     5    2   16 1
     6    2   21 1
     7    2    3 1
     8    3    4 1
     9    3   12 1
    10    3    5 1
    11    5    6 2
    12    5   13 1
    13    6   11 ar
    14    6    7 ar
    15    7    8 ar
    16    7   43 1
    17    8    9 ar
    18    8   44 1
    19    9   10 ar
    20    9   45 1
    21   10   11 ar
    22   10   46 1
    23   11   12 2
    24   12   66 1
    25   13   14 1
    26   13   15 1
    27   13   32 1
    28   15   16 1
    29   15   47 1
    30   15   48 1
    31   16   17 am
    32   17   18 2
    33   17   19 1
    34   19   20 1
    35   19   49 1
    36   19   50 1
    37   20   21 am
    38   20   23 1
    39   21   22 2
    40   23   24 1
    41   23   51 1
    42   23   52 1
    43   24   25 1
    44   24   53 1
    45   24   54 1
    46   25   30 ar
    47   25   26 ar
    48   26   27 ar
    49   26   55 1
    50   27   28 ar
    51   27   56 1
    52   28   29 ar
    53   28   31 1
    54   29   30 ar
    55   29   57 1
    56   30   58 1
    57   32   37 ar
    58   32   33 ar
    59   33   34 ar
    60   33   59 1
    61   34   35 ar
    62   34   60 1
    63   35   36 ar
    64   35   61 1
    65   36   37 ar
    66   36   62 1
    67   37   38 1
    68   38   39 1
    69   39   63 1
    70   39   64 1
    71   39   65 1
@<TRIPOS>MOLECULE
ZINC12793485
   58    60     0     0     0
SMALL
USER_CHARGES
ethyl 4-[4-[2-(trifluoromethyl)phenyl]sulfonylpiperazine-1-carbonyl]piperidine-1-carboxylate
@<TRIPOS>ATOM
      1 C1          5.6786    7.4551    5.0169 C.3       1 <0>        -0.1534
      2 C2          4.3853    7.6666    5.8065 C.3       1 <0>         0.0816
      3 O1          3.2779    7.0541    5.0946 O.3       1 <0>        -0.3707
      4 C3          2.0596    7.1510    5.6596 C.2       1 <0>         0.6513
      5 O2          1.9255    7.7315    6.7186 O.2       1 <0>        -0.5692
      6 N1          0.9889    6.6041    5.0505 N.am      1 <0>        -0.5964
      7 C4         -0.3468    6.7016    5.6546 C.3       1 <0>         0.1264
      8 C5         -0.9404    5.2940    5.7685 C.3       1 <0>        -0.1151
      9 C6         -0.9201    4.6233    4.3930 C.3       1 <0>        -0.1092
     10 C7          0.5251    4.5001    3.9050 C.3       1 <0>        -0.1319
     11 C8          1.1353    5.8987    3.7700 C.3       1 <0>         0.1139
     12 C9         -1.5346    3.2510    4.4944 C.2       1 <0>         0.5240
     13 O3         -1.8413    2.8026    5.5788 O.2       1 <0>        -0.5269
     14 N2         -1.7432    2.5221    3.3802 N.am      1 <0>        -0.6127
     15 C10        -1.4561    3.0851    2.0534 C.3       1 <0>         0.0824
     16 C11        -2.7214    2.9816    1.1928 C.3       1 <0>         0.0964
     17 N3         -3.2397    1.6094    1.2829 N.pl3     1 <0>        -0.9953
     18 C12        -3.5321    1.0484    2.6094 C.3       1 <0>         0.1037
     19 C13        -2.2615    1.1498    3.4703 C.3       1 <0>         0.0922
     20 S1         -3.4961    0.7137   -0.0862 S.o2      1 <0>         2.6687
     21 O4         -3.5270    1.6305   -1.1714 O.2       1 <0>        -0.9293
     22 O5         -4.5756   -0.1650    0.1996 O.2       1 <0>        -0.9267
     23 C14        -2.0724   -0.2975   -0.3215 C.ar      1 <0>        -0.6308
     24 C15        -0.9180   -0.0435    0.3956 C.ar      1 <0>        -0.0394
     25 C16         0.1986   -0.8369    0.2114 C.ar      1 <0>        -0.1020
     26 C17         0.1611   -1.8846   -0.6900 C.ar      1 <0>        -0.0661
     27 C18        -0.9947   -2.1417   -1.4030 C.ar      1 <0>        -0.0822
     28 C19        -2.1099   -1.3448   -1.2225 C.ar      1 <0>        -0.0871
     29 C20        -3.3685   -1.6219   -2.0038 C.3       1 <0>         0.4747
     30 F1         -3.1244   -2.6352   -2.9370 F         1 <0>        -0.1660
     31 F2         -4.3810   -2.0284   -1.1281 F         1 <0>        -0.1437
     32 F3         -3.7683   -0.4594   -2.6715 F         1 <0>        -0.1659
     33 H1          6.5099    7.9149    5.5513 H         1 <0>         0.0835
     34 H2          5.8652    6.3871    4.9044 H         1 <0>         0.0664
     35 H3          5.5821    7.9127    4.0323 H         1 <0>         0.0670
     36 H4          4.1987    8.7346    5.9189 H         1 <0>         0.0714
     37 H5          4.4818    7.2090    6.7911 H         1 <0>         0.0709
     38 H6         -0.9882    7.3189    5.0255 H         1 <0>         0.0761
     39 H7         -0.2676    7.1462    6.6467 H         1 <0>         0.1024
     40 H8         -1.9681    5.3603    6.1258 H         1 <0>         0.0886
     41 H9         -0.3485    4.7051    6.4691 H         1 <0>         0.0790
     42 H10        -1.4915    5.2258    3.6868 H         1 <0>         0.1028
     43 H11         1.1033    3.9187    4.6232 H         1 <0>         0.0774
     44 H12         0.5406    4.0013    2.9359 H         1 <0>         0.0859
     45 H13         0.6148    6.4505    2.9872 H         1 <0>         0.0763
     46 H14         2.1925    5.8134    3.5186 H         1 <0>         0.0985
     47 H15        -0.6480    2.5234    1.5847 H         1 <0>         0.0775
     48 H16        -1.1653    4.1309    2.1521 H         1 <0>         0.1090
     49 H17        -2.4786    3.2136    0.1559 H         1 <0>         0.1122
     50 H18        -3.4733    3.6813    1.5578 H         1 <0>         0.0904
     51 H19        -4.3393    1.6133    3.0757 H         1 <0>         0.0899
     52 H20        -3.8248    0.0033    2.5082 H         1 <0>         0.1056
     53 H21        -1.5108    0.4504    3.1025 H         1 <0>         0.0740
     54 H22        -2.5044    0.9178    4.5072 H         1 <0>         0.1116
     55 H23        -0.8888    0.7747    1.1000 H         1 <0>         0.1442
     56 H24         1.1003   -0.6387    0.7718 H         1 <0>         0.1446
     57 H25         1.0335   -2.5048   -0.8336 H         1 <0>         0.1476
     58 H26        -1.0254   -2.9629   -2.1038 H         1 <0>         0.1517
@<TRIPOS>BOND
     1    1    2 1
     2    1   33 1
     3    1   34 1
     4    1   35 1
     5    2    3 1
     6    2   36 1
     7    2   37 1
     8    3    4 1
     9    4    5 2
    10    4    6 am
    11    6   11 1
    12    6    7 1
    13    7    8 1
    14    7   38 1
    15    7   39 1
    16    8    9 1
    17    8   40 1
    18    8   41 1
    19    9   10 1
    20    9   12 1
    21    9   42 1
    22   10   11 1
    23   10   43 1
    24   10   44 1
    25   11   45 1
    26   11   46 1
    27   12   13 2
    28   12   14 am
    29   14   19 1
    30   14   15 1
    31   15   16 1
    32   15   47 1
    33   15   48 1
    34   16   17 1
    35   16   49 1
    36   16   50 1
    37   17   18 1
    38   17   20 1
    39   18   19 1
    40   18   51 1
    41   18   52 1
    42   19   53 1
    43   19   54 1
    44   20   21 2
    45   20   22 2
    46   20   23 1
    47   23   28 ar
    48   23   24 ar
    49   24   25 ar
    50   24   55 1
    51   25   26 ar
    52   25   56 1
    53   26   27 ar
    54   26   57 1
    55   27   28 ar
    56   27   58 1
    57   28   29 1
    58   29   30 1
    59   29   31 1
    60   29   32 1
@<TRIPOS>MOLECULE
ZINC20320912
   59    63     0     0     0
SMALL
USER_CHARGES
1-[4-[[4-[5-(p-tolyl)-1,3,4-oxadiazol-2-yl]-1-piperidyl]sulfonyl]phenyl]pyrrolidin-2-one
@<TRIPOS>ATOM
      1 C1         11.0095   -4.9738  -10.8274 C.3       1 <0>        -0.1244
      2 C2         10.3370   -4.5756   -9.5389 C.ar      1 <0>        -0.0570
      3 C3         10.9288   -4.8877   -8.3279 C.ar      1 <0>        -0.1216
      4 C4         10.3181   -4.5265   -7.1448 C.ar      1 <0>        -0.0606
      5 C5          9.1007   -3.8447   -7.1713 C.ar      1 <0>        -0.0359
      6 C6          8.5062   -3.5379   -8.3960 C.ar      1 <0>        -0.0785
      7 C7          9.1301   -3.8999   -9.5721 C.ar      1 <0>        -0.1232
      8 C8          8.4407   -3.4544   -5.9072 C.2       1 <0>         0.2105
      9 N1          8.8855   -3.6831   -4.6939 N.2       1 <0>        -0.2749
     10 N2          8.0555   -3.1972   -3.8392 N.2       1 <0>        -0.2736
     11 C9          7.0518   -2.6520   -4.4679 C.2       1 <0>         0.1667
     12 O1          7.2703   -2.7966   -5.7862 O.3       1 <0>        -0.2201
     13 C10         5.8646   -1.9761   -3.8316 C.3       1 <0>         0.0136
     14 C11         6.3442   -0.7978   -2.9808 C.3       1 <0>        -0.1266
     15 C12         5.1326   -0.0923   -2.3636 C.3       1 <0>         0.1180
     16 N3          4.3332   -1.0817   -1.6282 N.pl3     1 <0>        -0.9989
     17 C13         3.9010   -2.3003   -2.3261 C.3       1 <0>         0.1189
     18 C14         5.1217   -2.9785   -2.9454 C.3       1 <0>        -0.1260
     19 S1          3.9327   -0.8314   -0.0410 S.o2      1 <0>         2.6930
     20 O2          4.9052    0.0597    0.4876 O.2       1 <0>        -0.9513
     21 O3          3.6869   -2.1124    0.5227 O.2       1 <0>        -0.9525
     22 C15         2.3961    0.0307   -0.0211 C.ar      1 <0>        -0.7056
     23 C16         1.2083   -0.6768    0.0036 C.ar      1 <0>         0.0099
     24 C17         0.0022   -0.0041    0.0188 C.ar      1 <0>        -0.1806
     25 C18        -0.0168    1.3845    0.0097 C.ar      1 <0>         0.2237
     26 C19         1.1779    2.0921   -0.0147 C.ar      1 <0>        -0.1793
     27 C20         2.3806    1.4134   -0.0298 C.ar      1 <0>         0.0113
     28 N4         -1.2371    2.0691    0.0191 N.am      1 <0>        -0.5649
     29 C21        -2.5504    1.4221   -0.0838 C.3       1 <0>         0.0860
     30 C22        -3.5358    2.5484   -0.4667 C.3       1 <0>        -0.1323
     31 C23        -2.8170    3.7991    0.0902 C.3       1 <0>        -0.1523
     32 C24        -1.3574    3.4033    0.1295 C.2       1 <0>         0.5202
     33 O4         -0.4305    4.1775    0.2415 O.2       1 <0>        -0.4993
     34 H1         11.9506   -5.4974  -10.6032 H         1 <0>         0.0707
     35 H2         11.2234   -4.0739  -11.4227 H         1 <0>         0.0761
     36 H3         10.3454   -5.6408  -11.3967 H         1 <0>         0.0761
     37 H4         11.8708   -5.4157   -8.3088 H         1 <0>         0.1357
     38 H5         10.7810   -4.7710   -6.2001 H         1 <0>         0.1408
     39 H6          7.5617   -3.0148   -8.4232 H         1 <0>         0.1315
     40 H7          8.6733   -3.6592  -10.5207 H         1 <0>         0.1333
     41 H8          5.1967   -1.6146   -4.6273 H         1 <0>         0.1067
     42 H9          7.0022   -1.1673   -2.1805 H         1 <0>         0.0894
     43 H10         6.8991   -0.0900   -3.6142 H         1 <0>         0.0852
     44 H11         5.4772    0.6941   -1.6760 H         1 <0>         0.1053
     45 H12         4.5251    0.3590   -3.1619 H         1 <0>         0.0778
     46 H13         3.4214   -2.9829   -1.6091 H         1 <0>         0.1045
     47 H14         3.1832   -2.0353   -3.1164 H         1 <0>         0.0771
     48 H15         4.7968   -3.8354   -3.5538 H         1 <0>         0.0853
     49 H16         5.7920   -3.3290   -2.1468 H         1 <0>         0.0894
     50 H17         1.2237   -1.7567    0.0107 H         1 <0>         0.1445
     51 H18        -0.9252   -0.5572    0.0381 H         1 <0>         0.1361
     52 H19         1.1665    3.1721   -0.0222 H         1 <0>         0.1635
     53 H20         3.3101    1.9632   -0.0487 H         1 <0>         0.1444
     54 H21        -2.5142    0.6399   -0.8563 H         1 <0>         0.0905
     55 H22        -2.8132    0.9699    0.8839 H         1 <0>         0.0854
     56 H23        -3.6600    2.5711   -1.5594 H         1 <0>         0.0885
     57 H24        -4.5097    2.3610    0.0091 H         1 <0>         0.1004
     58 H25        -2.9947    4.6530   -0.5801 H         1 <0>         0.1135
     59 H26        -3.2083    4.0314    1.0917 H         1 <0>         0.1156
@<TRIPOS>BOND
     1    1    2 1
     2    1   34 1
     3    1   35 1
     4    1   36 1
     5    2    7 ar
     6    2    3 ar
     7    3    4 ar
     8    3   37 1
     9    4    5 ar
    10    4   38 1
    11    5    6 ar
    12    5    8 1
    13    6    7 ar
    14    6   39 1
    15    7   40 1
    16    8   12 1
    17    8    9 2
    18    9   10 1
    19   10   11 2
    20   11   12 1
    21   11   13 1
    22   13   18 1
    23   13   14 1
    24   13   41 1
    25   14   15 1
    26   14   42 1
    27   14   43 1
    28   15   16 1
    29   15   44 1
    30   15   45 1
    31   16   17 1
    32   16   19 1
    33   17   18 1
    34   17   46 1
    35   17   47 1
    36   18   48 1
    37   18   49 1
    38   19   20 2
    39   19   21 2
    40   19   22 1
    41   22   27 ar
    42   22   23 ar
    43   23   24 ar
    44   23   50 1
    45   24   25 ar
    46   24   51 1
    47   25   26 ar
    48   25   28 1
    49   26   27 ar
    50   26   52 1
    51   27   53 1
    52   28   32 am
    53   28   29 1
    54   29   30 1
    55   29   54 1
    56   29   55 1
    57   30   31 1
    58   30   56 1
    59   30   57 1
    60   31   32 1
    61   31   58 1
    62   31   59 1
    63   32   33 2
@<TRIPOS>MOLECULE
ZINC27455930
   58    60     0     0     0
SMALL
USER_CHARGES
ethyl 4-[1-[2-(trifluoromethyl)phenyl]sulfonylpiperidine-4-carbonyl]piperazine-1-carboxylate
@<TRIPOS>ATOM
      1 C1          3.2163   11.5890    0.2022 C.3       1 <0>        -0.1554
      2 C2          2.6954   11.2279   -1.1903 C.3       1 <0>         0.0798
      3 O1          2.3741    9.8126   -1.2349 O.3       1 <0>        -0.3700
      4 C3          1.8995    9.3299   -2.3987 C.2       1 <0>         0.6519
      5 O2          1.7577   10.0710   -3.3511 O.2       1 <0>        -0.5678
      6 N1          1.5817    8.0246   -2.5073 N.am      1 <0>        -0.5965
      7 C4          1.0626    7.4838   -3.7714 C.3       1 <0>         0.1113
      8 C5         -0.2788    6.7936   -3.4950 C.3       1 <0>         0.0952
      9 N2         -0.1129    5.8857   -2.3513 N.am      1 <0>        -0.6157
     10 C6          0.4009    6.4276   -1.0855 C.3       1 <0>         0.0878
     11 C7          1.7476    7.1167   -1.3636 C.3       1 <0>         0.0959
     12 C8         -0.4316    4.5806   -2.4596 C.2       1 <0>         0.5215
     13 O3         -0.7694    4.1259   -3.5320 O.2       1 <0>        -0.5282
     14 C9         -0.3681    3.6864   -1.2483 C.3       1 <0>        -0.1070
     15 C10         0.9962    2.9950   -1.1959 C.3       1 <0>        -0.1229
     16 C11         1.0698    2.1138    0.0550 C.3       1 <0>         0.1157
     17 N3         -0.0742    1.1919    0.0521 N.pl3     1 <0>        -0.9950
     18 C12        -1.4275    1.7458   -0.0910 C.3       1 <0>         0.1113
     19 C13        -1.4736    2.6316   -1.3347 C.3       1 <0>        -0.1166
     20 S1          0.1577   -0.4411    0.2004 S.o2      1 <0>         2.6695
     21 O4         -1.0292   -1.0643   -0.2707 O.2       1 <0>        -0.9301
     22 O5          1.4364   -0.7216   -0.3525 O.2       1 <0>        -0.9296
     23 C14         0.2645   -0.7979    1.9226 C.ar      1 <0>        -0.6316
     24 C15        -0.1233    0.1509    2.8504 C.ar      1 <0>        -0.0325
     25 C16        -0.0441   -0.1307    4.2012 C.ar      1 <0>        -0.1036
     26 C17         0.4327   -1.3574    4.6248 C.ar      1 <0>        -0.0679
     27 C18         0.8252   -2.3040    3.6973 C.ar      1 <0>        -0.0841
     28 C19         0.7411   -2.0242    2.3460 C.ar      1 <0>        -0.0884
     29 C20         1.1696   -3.0561    1.3347 C.3       1 <0>         0.4749
     30 F1          1.4857   -4.2499    1.9920 F         1 <0>        -0.1667
     31 F2          0.1269   -3.2837    0.4302 F         1 <0>        -0.1663
     32 F3          2.2939   -2.5926    0.6432 F         1 <0>        -0.1433
     33 H1          3.4597   12.6612    0.2359 H         1 <0>         0.0848
     34 H2          4.1201   11.0008    0.4195 H         1 <0>         0.0678
     35 H3          2.4436   11.3646    0.9523 H         1 <0>         0.0675
     36 H4          1.7916   11.8161   -1.4076 H         1 <0>         0.0723
     37 H5          3.4680   11.4523   -1.9404 H         1 <0>         0.0724
     38 H6          0.9202    8.3042   -4.4902 H         1 <0>         0.1114
     39 H7          1.7797    6.7574   -4.1814 H         1 <0>         0.0802
     40 H8         -1.0406    7.5524   -3.2630 H         1 <0>         0.0761
     41 H9         -0.5878    6.2235   -4.3836 H         1 <0>         0.1116
     42 H10        -0.3174    7.1551   -0.6797 H         1 <0>         0.0790
     43 H11         0.5392    5.6080   -0.3650 H         1 <0>         0.1047
     44 H12         2.5122    6.3626   -1.6020 H         1 <0>         0.0792
     45 H13         2.0631    7.6925   -0.4811 H         1 <0>         0.1081
     46 H14        -0.5093    4.3024   -0.3480 H         1 <0>         0.0979
     47 H15         1.1263    2.3721   -2.0932 H         1 <0>         0.0844
     48 H16         1.7910    3.7545   -1.1584 H         1 <0>         0.0838
     49 H17         2.0095    1.5421    0.0459 H         1 <0>         0.1024
     50 H18         1.0352    2.7482    0.9530 H         1 <0>         0.0780
     51 H19        -2.1511    0.9238   -0.1941 H         1 <0>         0.1055
     52 H20        -1.6753    2.3429    0.7990 H         1 <0>         0.0763
     53 H21        -2.4523    3.1302   -1.3946 H         1 <0>         0.0845
     54 H22        -1.3214    2.0136   -2.2319 H         1 <0>         0.0869
     55 H23        -0.4916    1.1108    2.5196 H         1 <0>         0.1469
     56 H24        -0.3505    0.6090    4.9260 H         1 <0>         0.1450
     57 H25         0.4987   -1.5759    5.6804 H         1 <0>         0.1468
     58 H26         1.1980   -3.2621    4.0282 H         1 <0>         0.1509
@<TRIPOS>BOND
     1    1    2 1
     2    1   33 1
     3    1   34 1
     4    1   35 1
     5    2    3 1
     6    2   36 1
     7    2   37 1
     8    3    4 1
     9    4    5 2
    10    4    6 am
    11    6   11 1
    12    6    7 1
    13    7    8 1
    14    7   38 1
    15    7   39 1
    16    8    9 1
    17    8   40 1
    18    8   41 1
    19    9   10 1
    20    9   12 am
    21   10   11 1
    22   10   42 1
    23   10   43 1
    24   11   44 1
    25   11   45 1
    26   12   13 2
    27   12   14 1
    28   14   19 1
    29   14   15 1
    30   14   46 1
    31   15   16 1
    32   15   47 1
    33   15   48 1
    34   16   17 1
    35   16   49 1
    36   16   50 1
    37   17   18 1
    38   17   20 1
    39   18   19 1
    40   18   51 1
    41   18   52 1
    42   19   53 1
    43   19   54 1
    44   20   21 2
    45   20   22 2
    46   20   23 1
    47   23   28 ar
    48   23   24 ar
    49   24   25 ar
    50   24   55 1
    51   25   26 ar
    52   25   56 1
    53   26   27 ar
    54   26   57 1
    55   27   28 ar
    56   27   58 1
    57   28   29 1
    58   29   30 1
    59   29   31 1
    60   29   32 1
@<TRIPOS>MOLECULE
ZINC08680760
   64    66     0     0     0
SMALL
USER_CHARGES

@<TRIPOS>ATOM
      1 C1         -2.6970   -0.6781    1.0748 C.3       1 <0>        -0.1531
      2 C2         -2.4091   -2.1658    0.8630 C.3       1 <0>         0.0798
      3 O1         -1.5092   -2.3252   -0.2356 O.3       1 <0>        -0.3635
      4 C3         -1.1520   -3.5833   -0.5555 C.2       1 <0>         0.6525
      5 O2         -1.5923   -4.5203    0.0806 O.2       1 <0>        -0.5682
      6 N1         -0.3061   -3.8033   -1.5814 N.am      1 <0>        -0.5960
      7 C4          0.2390   -2.6794   -2.3557 C.3       1 <0>         0.0991
      8 C5          1.7700   -2.7692   -2.3385 C.3       1 <0>         0.0961
      9 N2          2.1642   -4.1374   -2.7026 N.am      1 <0>        -0.6157
     10 C6          1.6191   -5.2613   -1.9284 C.3       1 <0>         0.0889
     11 C7          0.0925   -5.1711   -1.9420 C.3       1 <0>         0.1118
     12 C8          3.0101   -4.3575   -3.7285 C.2       1 <0>         0.5225
     13 O3          3.4154   -3.4258   -4.3908 O.2       1 <0>        -0.5293
     14 C9          3.4525   -5.7612   -4.0526 C.3       1 <0>        -0.1060
     15 C10         4.4462   -6.2403   -2.9919 C.3       1 <0>        -0.1257
     16 C11         4.8671   -7.6795   -3.3053 C.3       1 <0>         0.1163
     17 N3          5.3803   -7.7332   -4.6810 N.pl3     1 <0>        -0.9975
     18 C12         4.5406   -7.2136   -5.7690 C.3       1 <0>         0.1163
     19 C13         4.1234   -5.7796   -5.4280 C.3       1 <0>        -0.1124
     20 S1          6.8768   -8.3669   -4.9992 S.o2      1 <0>         2.6902
     21 O4          7.3077   -7.7943   -6.2262 O.2       1 <0>        -0.9492
     22 O5          7.6296   -8.2528   -3.7994 O.2       1 <0>        -0.9520
     23 C14         6.6604  -10.0902   -5.2961 C.ar      1 <0>        -0.6941
     24 C15         6.5744  -10.5628   -6.5923 C.ar      1 <0>         0.0297
     25 C16         6.4047  -11.9147   -6.8252 C.ar      1 <0>        -0.1551
     26 C17         6.3215  -12.7942   -5.7619 C.ar      1 <0>        -0.0179
     27 C18         6.4084  -12.3217   -4.4657 C.ar      1 <0>        -0.1556
     28 C19         6.5824  -10.9702   -4.2329 C.ar      1 <0>         0.0330
     29 C20         6.6824  -10.4558   -2.8200 C.3       1 <0>        -0.1909
     30 C21         6.1355  -14.2679   -6.0158 C.3       1 <0>        -0.1257
     31 C22         6.6652   -9.6040   -7.7514 C.3       1 <0>        -0.1418
     32 H1         -1.7653   -0.1547    1.2895 H         1 <0>         0.0671
     33 H2         -3.1474   -0.2633    0.1731 H         1 <0>         0.0671
     34 H3         -3.3834   -0.5566    1.9128 H         1 <0>         0.0833
     35 H4         -1.9587   -2.5807    1.7647 H         1 <0>         0.0687
     36 H5         -3.3408   -2.6892    0.6484 H         1 <0>         0.0687
     37 H6         -0.1192   -2.7354   -3.3836 H         1 <0>         0.0782
     38 H7         -0.0773   -1.7380   -1.9063 H         1 <0>         0.1063
     39 H8          2.1859   -2.0648   -3.0588 H         1 <0>         0.1090
     40 H9          2.1389   -2.5358   -1.3398 H         1 <0>         0.0750
     41 H10         1.9354   -6.2027   -2.3778 H         1 <0>         0.1055
     42 H11         1.9773   -5.2053   -0.9004 H         1 <0>         0.0801
     43 H12        -0.3205   -5.8750   -1.2194 H         1 <0>         0.1113
     44 H13        -0.2764   -5.4087   -2.9398 H         1 <0>         0.0794
     45 H14         2.5856   -6.4219   -4.0625 H         1 <0>         0.0995
     46 H15         5.3245   -5.5948   -2.9983 H         1 <0>         0.0802
     47 H16         3.9752   -6.2047   -2.0096 H         1 <0>         0.0838
     48 H17         5.6480   -7.9911   -2.6116 H         1 <0>         0.1014
     49 H18         4.0059   -8.3409   -3.2104 H         1 <0>         0.0752
     50 H19         5.1060   -7.2178   -6.7008 H         1 <0>         0.0995
     51 H20         3.6528   -7.8370   -5.8750 H         1 <0>         0.0737
     52 H21         3.4225   -5.4161   -6.1795 H         1 <0>         0.0843
     53 H22         5.0047   -5.1384   -5.4114 H         1 <0>         0.0824
     54 H23         6.3368  -12.2839   -7.8379 H         1 <0>         0.1313
     55 H24         6.3430  -13.0087   -3.6350 H         1 <0>         0.1305
     56 H25         5.7121  -10.0734   -2.5030 H         1 <0>         0.0797
     57 H26         6.9869  -11.2669   -2.1586 H         1 <0>         0.0790
     58 H27         7.4204   -9.6548   -2.7763 H         1 <0>         0.1338
     59 H28         7.1104  -14.7480   -6.1003 H         1 <0>         0.0800
     60 H29         5.5822  -14.7122   -5.1883 H         1 <0>         0.0728
     61 H30         5.5792  -14.4096   -6.9424 H         1 <0>         0.0730
     62 H31         7.7122   -9.3835   -7.9594 H         1 <0>         0.0937
     63 H32         6.2068  -10.0541   -8.6320 H         1 <0>         0.0713
     64 H33         6.1422   -8.6810   -7.5013 H         1 <0>         0.0890
@<TRIPOS>BOND
     1    1    2 1
     2    1   32 1
     3    1   33 1
     4    1   34 1
     5    2    3 1
     6    2   35 1
     7    2   36 1
     8    3    4 1
     9    4    5 2
    10    4    6 am
    11    6   11 1
    12    6    7 1
    13    7    8 1
    14    7   37 1
    15    7   38 1
    16    8    9 1
    17    8   39 1
    18    8   40 1
    19    9   10 1
    20    9   12 am
    21   10   11 1
    22   10   41 1
    23   10   42 1
    24   11   43 1
    25   11   44 1
    26   12   13 2
    27   12   14 1
    28   14   19 1
    29   14   15 1
    30   14   45 1
    31   15   16 1
    32   15   46 1
    33   15   47 1
    34   16   17 1
    35   16   48 1
    36   16   49 1
    37   17   18 1
    38   17   20 1
    39   18   19 1
    40   18   50 1
    41   18   51 1
    42   19   52 1
    43   19   53 1
    44   20   21 2
    45   20   22 2
    46   20   23 1
    47   23   28 ar
    48   23   24 ar
    49   24   25 ar
    50   24   31 1
    51   25   26 ar
    52   25   54 1
    53   26   27 ar
    54   26   30 1
    55   27   28 ar
    56   27   55 1
    57   28   29 1
    58   29   56 1
    59   29   57 1
    60   29   58 1
    61   30   59 1
    62   30   60 1
    63   30   61 1
    64   31   62 1
    65   31   63 1
    66   31   64 1
@<TRIPOS>MOLECULE
ZINC59932179
   63    65     0     0     0
SMALL
USER_CHARGES

@<TRIPOS>ATOM
      1 C1         -0.0184    1.5028    0.0103 C.3       1 <0>        -0.1213
      2 C2          0.0021   -0.0041    0.0020 C.2       1 <0>         0.1814
      3 C3          0.0080   -0.8237   -1.1409 C.2       1 <0>        -0.8501
      4 C4          0.0273   -2.1079   -0.7353 C.2       1 <0>         0.2206
      5 O1          0.0335   -2.1190    0.6064 O.3       1 <0>        -0.0740
      6 N1          0.0230   -0.7748    1.0524 N.2       1 <0>        -0.3074
      7 C5          0.0393   -3.3197   -1.6311 C.3       1 <0>        -0.1402
      8 S1         -0.0076   -0.2673   -2.8126 S.o2      1 <0>         2.7210
      9 O2         -0.5474   -1.3282   -3.5887 O.2       1 <0>        -0.9482
     10 O3         -0.5765    1.0348   -2.8020 O.2       1 <0>        -0.9420
     11 N2          1.5698   -0.0907   -3.2847 N.pl3     1 <0>        -0.9945
     12 C6          2.2695    1.1874   -3.0927 C.3       1 <0>         0.1052
     13 C7          3.5495    0.9294   -2.2882 C.3       1 <0>         0.0959
     14 N3          4.2750   -0.1894   -2.9062 N.am      1 <0>        -0.6135
     15 C8          3.5754   -1.4675   -3.0981 C.3       1 <0>         0.0886
     16 C9          2.2971   -1.2112   -3.8975 C.3       1 <0>         0.1012
     17 C10         5.5589   -0.0457   -3.2903 C.2       1 <0>         0.4912
     18 O4          6.1257    1.0140   -3.1271 O.2       1 <0>        -0.5157
     19 C11         6.2901   -1.2018   -3.9226 C.3       1 <0>         0.1074
     20 N4          7.6593   -0.7946   -4.2475 N.pl3     1 <0>        -0.6148
     21 C12         8.7299   -0.9739   -3.2636 C.3       1 <0>         0.0979
     22 C13         7.9442   -0.2354   -5.4954 C.ar      1 <0>         0.2159
     23 C14         6.9292   -0.0594   -6.4273 C.ar      1 <0>        -0.1911
     24 C15         7.2142    0.4943   -7.6600 C.ar      1 <0>        -0.0668
     25 C16         8.5083    0.8728   -7.9672 C.ar      1 <0>        -0.1239
     26 C17         9.5211    0.6990   -7.0417 C.ar      1 <0>        -0.0729
     27 C18         9.2420    0.1512   -5.8051 C.ar      1 <0>        -0.1885
     28 C19         8.8157    1.4757   -9.3137 C.3       1 <0>        -0.0233
     29 C20         8.0012    2.7579   -9.4963 C.3       1 <0>        -0.1386
     30 C21        10.3079    1.8032   -9.3972 C.3       1 <0>        -0.1444
     31 C22         8.4501    0.4781  -10.4146 C.3       1 <0>        -0.1380
     32 H1          1.0042    1.8801    0.0026 H         1 <0>         0.0969
     33 H2         -0.5455    1.8639   -0.8728 H         1 <0>         0.1194
     34 H3         -0.5286    1.8543    0.9071 H         1 <0>         0.0936
     35 H4          1.0697   -3.5980   -1.8521 H         1 <0>         0.1114
     36 H5         -0.4610   -4.1477   -1.1290 H         1 <0>         0.1058
     37 H6         -0.4822   -3.0898   -2.5603 H         1 <0>         0.1359
     38 H7          2.5265    1.6130   -4.0627 H         1 <0>         0.0871
     39 H8          1.6268    1.8777   -2.5463 H         1 <0>         0.1055
     40 H9          4.1750    1.8220   -2.2998 H         1 <0>         0.1081
     41 H10         3.2906    0.6744   -1.2606 H         1 <0>         0.0708
     42 H11         4.2180   -2.1578   -3.6446 H         1 <0>         0.1005
     43 H12         3.3184   -1.8931   -2.1281 H         1 <0>         0.0756
     44 H13         1.6727   -2.1045   -3.8824 H         1 <0>         0.1060
     45 H14         2.5562   -0.9603   -4.9261 H         1 <0>         0.0883
     46 H15         6.3158   -2.0400   -3.2263 H         1 <0>         0.1046
     47 H16         5.7745   -1.5027   -4.8346 H         1 <0>         0.1067
     48 H17         9.1846   -1.9556   -3.3964 H         1 <0>         0.0513
     49 H18         9.4857   -0.2013   -3.4042 H         1 <0>         0.0714
     50 H19         8.3157   -0.8983   -2.2582 H         1 <0>         0.0631
     51 H20         5.9185   -0.3554   -6.1883 H         1 <0>         0.1130
     52 H21         6.4256    0.6314   -8.3850 H         1 <0>         0.1180
     53 H22        10.5306    0.9957   -7.2848 H         1 <0>         0.1249
     54 H23        10.0325    0.0199   -5.0811 H         1 <0>         0.1213
     55 H24         8.2616    3.4686   -8.7120 H         1 <0>         0.0553
     56 H25         8.2235    3.1940  -10.4702 H         1 <0>         0.0560
     57 H26         6.9381    2.5246   -9.4368 H         1 <0>         0.0548
     58 H27        10.8882    0.8897   -9.2671 H         1 <0>         0.0576
     59 H28        10.5303    2.2393  -10.3711 H         1 <0>         0.0565
     60 H29        10.5684    2.5139   -8.6129 H         1 <0>         0.0576
     61 H30         7.3870    0.2448  -10.3551 H         1 <0>         0.0549
     62 H31         8.6724    0.9142  -11.3885 H         1 <0>         0.0559
     63 H32         9.0304   -0.4354  -10.2845 H         1 <0>         0.0552
@<TRIPOS>BOND
     1    1    2 1
     2    1   32 1
     3    1   33 1
     4    1   34 1
     5    2    6 2
     6    2    3 1
     7    3    4 2
     8    3    8 1
     9    4    5 1
    10    4    7 1
    11    5    6 1
    12    7   35 1
    13    7   36 1
    14    7   37 1
    15    8    9 2
    16    8   10 2
    17    8   11 1
    18   11   16 1
    19   11   12 1
    20   12   13 1
    21   12   38 1
    22   12   39 1
    23   13   14 1
    24   13   40 1
    25   13   41 1
    26   14   15 1
    27   14   17 am
    28   15   16 1
    29   15   42 1
    30   15   43 1
    31   16   44 1
    32   16   45 1
    33   17   18 2
    34   17   19 1
    35   19   20 1
    36   19   46 1
    37   19   47 1
    38   20   21 1
    39   20   22 1
    40   21   48 1
    41   21   49 1
    42   21   50 1
    43   22   27 ar
    44   22   23 ar
    45   23   24 ar
    46   23   51 1
    47   24   25 ar
    48   24   52 1
    49   25   26 ar
    50   25   28 1
    51   26   27 ar
    52   26   53 1
    53   27   54 1
    54   28   29 1
    55   28   30 1
    56   28   31 1
    57   29   55 1
    58   29   56 1
    59   29   57 1
    60   30   58 1
    61   30   59 1
    62   30   60 1
    63   31   61 1
    64   31   62 1
    65   31   63 1
@<TRIPOS>MOLECULE
ZINC09396958
   61    64     0     0     0
SMALL
USER_CHARGES
1-(1-acetyl-2-methyl-indolin-5-yl)sulfonyl-N-cyclopentyl-piperidine-4-carboxamide
@<TRIPOS>ATOM
      1 C1         -4.2603    2.2383    1.4856 C.3       1 <0>        -0.1801
      2 C2         -3.4992    2.3399    0.1623 C.3       1 <0>         0.1243
      3 H1         -4.1634    2.6816   -0.6316 H         1 <0>         0.1004
      4 C3         -2.3034    3.2938    0.3172 C.3       1 <0>        -0.0827
      5 C4         -1.0926    2.4375    0.0218 C.ar      1 <0>        -0.1591
      6 C5          0.2533    2.7496   -0.0043 C.ar      1 <0>         0.0230
      7 C6          1.1860    1.7757   -0.3079 C.ar      1 <0>        -0.7004
      8 C7          0.7691    0.4866   -0.5855 C.ar      1 <0>         0.0067
      9 C8         -0.5723    0.1707   -0.5607 C.ar      1 <0>        -0.1526
     10 C9         -1.5210    1.1504   -0.2604 C.ar      1 <0>         0.2028
     11 N1         -2.9133    1.0433   -0.1881 N.am      1 <0>        -0.5550
     12 C10        -3.6138   -0.0869   -0.4084 C.2       1 <0>         0.5235
     13 O1         -3.0350   -1.1117   -0.7015 O.2       1 <0>        -0.5138
     14 C11        -5.1161   -0.0773   -0.2905 C.3       1 <0>        -0.1865
     15 S1          2.9017    2.1757   -0.3419 S.o2      1 <0>         2.6942
     16 O2          3.0689    3.3176    0.4873 O.2       1 <0>        -0.9525
     17 O3          3.6062    0.9621   -0.1182 O.2       1 <0>        -0.9533
     18 N2          3.2623    2.6548   -1.8855 N.pl3     1 <0>        -0.9983
     19 C12         3.7039    1.6767   -2.8890 C.3       1 <0>         0.1187
     20 C13         5.0230    2.1493   -3.4976 C.3       1 <0>        -0.1242
     21 C14         4.8527    3.5711   -4.0376 C.3       1 <0>        -0.1059
     22 C15         4.4832    4.5136   -2.8899 C.3       1 <0>        -0.1122
     23 C16         3.1526    4.0670   -2.2759 C.3       1 <0>         0.1171
     24 C17         6.1442    4.0273   -4.6659 C.2       1 <0>         0.5171
     25 O4          6.7131    5.0093   -4.2380 O.2       1 <0>        -0.5343
     26 N3          6.6672    3.3440   -5.7032 N.am      1 <0>        -0.7259
     27 C18         7.9228    3.7875   -6.3140 C.3       1 <0>         0.1384
     28 C19         7.6365    4.8355   -7.4092 C.3       1 <0>        -0.1342
     29 C20         8.6739    4.5201   -8.5163 C.3       1 <0>        -0.1257
     30 C21         8.7303    2.9723   -8.5020 C.3       1 <0>        -0.1247
     31 C22         8.6183    2.6034   -7.0083 C.3       1 <0>        -0.1317
     32 H2         -3.5638    2.3583    2.3155 H         1 <0>         0.0706
     33 H3         -5.0173    3.0212    1.5305 H         1 <0>         0.0818
     34 H4         -4.7420    1.2628    1.5537 H         1 <0>         0.0761
     35 H5         -2.2506    3.6900    1.3313 H         1 <0>         0.1005
     36 H6         -2.3802    4.1060   -0.4057 H         1 <0>         0.0967
     37 H7          0.5772    3.7567    0.2128 H         1 <0>         0.1433
     38 H8          1.4971   -0.2751   -0.8229 H         1 <0>         0.1451
     39 H9         -0.8914   -0.8377   -0.7787 H         1 <0>         0.1485
     40 H10        -5.5571    0.0658   -1.2770 H         1 <0>         0.1022
     41 H11        -5.4541   -1.0270    0.1243 H         1 <0>         0.1022
     42 H12        -5.4238    0.7362    0.3665 H         1 <0>         0.0976
     43 H13         3.8490    0.7063   -2.4142 H         1 <0>         0.0994
     44 H14         2.9519    1.5932   -3.6735 H         1 <0>         0.0747
     45 H15         5.3089    1.4829   -4.3114 H         1 <0>         0.0818
     46 H16         5.7979    2.1416   -2.7311 H         1 <0>         0.0777
     47 H17         4.0606    3.5827   -4.7863 H         1 <0>         0.1010
     48 H18         4.3849    5.5300   -3.2711 H         1 <0>         0.0861
     49 H19         5.2631    4.4837   -2.1291 H         1 <0>         0.0786
     50 H20         2.3547    4.1824   -3.0094 H         1 <0>         0.0730
     51 H21         2.9341    4.6733   -1.3968 H         1 <0>         0.0991
     52 H22         6.2123    2.5587   -6.0454 H         1 <0>         0.3992
     53 H23         8.5783    4.2118   -5.5534 H         1 <0>         0.0910
     54 H24         6.6227    4.7196   -7.7924 H         1 <0>         0.0690
     55 H25         7.7858    5.8432   -7.0213 H         1 <0>         0.0708
     56 H26         9.6462    4.9444   -8.2658 H         1 <0>         0.0696
     57 H27         8.3327    4.8853   -9.4849 H         1 <0>         0.0691
     58 H28         9.6774    2.6213   -8.9117 H         1 <0>         0.0690
     59 H29         7.8933    2.5550   -9.0618 H         1 <0>         0.0669
     60 H30         9.6116    2.4536   -6.5852 H         1 <0>         0.0753
     61 H31         8.0217    1.6989   -6.8908 H         1 <0>         0.0709
@<TRIPOS>BOND
     1    1    2 1
     2    1   32 1
     3    1   33 1
     4    1   34 1
     5    2    3 1
     6    2   11 1
     7    2    4 1
     8    4    5 1
     9    4   35 1
    10    4   36 1
    11    5   10 ar
    12    5    6 ar
    13    6    7 ar
    14    6   37 1
    15    7    8 ar
    16    7   15 1
    17    8    9 ar
    18    8   38 1
    19    9   10 ar
    20    9   39 1
    21   10   11 1
    22   11   12 am
    23   12   13 2
    24   12   14 1
    25   14   40 1
    26   14   41 1
    27   14   42 1
    28   15   16 2
    29   15   17 2
    30   15   18 1
    31   18   23 1
    32   18   19 1
    33   19   20 1
    34   19   43 1
    35   19   44 1
    36   20   21 1
    37   20   45 1
    38   20   46 1
    39   21   22 1
    40   21   24 1
    41   21   47 1
    42   22   23 1
    43   22   48 1
    44   22   49 1
    45   23   50 1
    46   23   51 1
    47   24   25 2
    48   24   26 am
    49   26   27 1
    50   26   52 1
    51   27   31 1
    52   27   28 1
    53   27   53 1
    54   28   29 1
    55   28   54 1
    56   28   55 1
    57   29   30 1
    58   29   56 1
    59   29   57 1
    60   30   31 1
    61   30   58 1
    62   30   59 1
    63   31   60 1
    64   31   61 1
@<TRIPOS>MOLECULE
ZINC21955222
   40    42     0     0     0
SMALL
USER_CHARGES
2-(6-bromo-3-ethyl-4-oxo-quinazolin-2-yl)sulfanyl-N-(5-methylisoxazol-3-yl)acetamide
@<TRIPOS>ATOM
      1 C1         -6.7879    3.3292   -1.3895 C.3       1 <0>        -0.1728
      2 C2         -6.7063    2.8163    0.0497 C.3       1 <0>         0.0805
      3 N1         -6.4909    1.3673    0.0403 N.am      1 <0>        -0.5257
      4 C3         -7.5544    0.5306    0.0407 C.2       1 <0>         0.5572
      5 O1         -8.6940    0.9586    0.0488 O.2       1 <0>        -0.4951
      6 C4         -7.2834   -0.9133    0.0316 C.ar      1 <0>        -0.1992
      7 C5         -8.3114   -1.8553    0.0308 C.ar      1 <0>        -0.0040
      8 C6         -7.9990   -3.1976    0.0216 C.ar      1 <0>        -0.1176
      9 C7         -6.6731   -3.6147    0.0131 C.ar      1 <0>        -0.0419
     10 C8         -5.6512   -2.7083    0.0133 C.ar      1 <0>        -0.1071
     11 C9         -5.9359   -1.3398    0.0229 C.ar      1 <0>         0.1848
     12 N2         -4.9509   -0.4110    0.0180 N.2       1 <0>        -0.5381
     13 C10        -5.2184    0.8715    0.0315 C.2       1 <0>         0.3626
     14 S1         -3.8736    2.0100    0.0313 S.3       1 <0>         0.0956
     15 C11        -2.4820    0.8526    0.0185 C.3       1 <0>        -0.1531
     16 C12        -1.1873    1.6238    0.0165 C.2       1 <0>         0.5453
     17 O2         -1.2037    2.8364    0.0232 O.2       1 <0>        -0.5025
     18 N3         -0.0111    0.9658    0.0074 N.am      1 <0>        -0.6380
     19 C13         1.1874    1.6797   -0.0003 C.2       1 <0>         0.2488
     20 C14         1.3387    3.0918    0.0059 C.2       1 <0>        -0.2326
     21 C15         2.6785    3.2764   -0.0054 C.2       1 <0>        -0.0162
     22 O3          3.2335    2.0558   -0.0170 O.3       1 <0>         0.0984
     23 N4          2.3966    1.1831   -0.0087 N.2       1 <0>        -0.3872
     24 C16         3.4058    4.5963   -0.0046 C.3       1 <0>        -0.0801
     25 Br1        -9.3860   -4.4829    0.0211 Br        1 <0>        -0.0345
     26 H1         -6.9496    4.4172   -1.3824 H         1 <0>         0.0860
     27 H2         -7.6247    2.8375   -1.9071 H         1 <0>         0.0660
     28 H3         -5.8480    3.1016   -1.9137 H         1 <0>         0.0679
     29 H4         -5.8695    3.3080    0.5673 H         1 <0>         0.1014
     30 H5         -7.6462    3.0439    0.5739 H         1 <0>         0.1106
     31 H6         -9.3431   -1.5360    0.0370 H         1 <0>         0.1489
     32 H7         -6.4476   -4.6709    0.0060 H         1 <0>         0.1453
     33 H8         -4.6260   -3.0481    0.0059 H         1 <0>         0.1490
     34 H9         -2.5274    0.2147    0.9135 H         1 <0>         0.1406
     35 H10        -2.5359    0.2243   -0.8828 H         1 <0>         0.1410
     36 H11         0.0038   -0.1341    0.0060 H         1 <0>         0.4511
     37 H12         0.5637    3.8439    0.0170 H         1 <0>         0.1899
     38 H13         4.4910    4.4169   -0.0156 H         1 <0>         0.0863
     39 H14         3.1369    5.1626    0.8993 H         1 <0>         0.0945
     40 H15         3.1203    5.1728   -0.8969 H         1 <0>         0.0944
@<TRIPOS>BOND
     1    1    2 1
     2    1   26 1
     3    1   27 1
     4    1   28 1
     5    2    3 1
     6    2   29 1
     7    2   30 1
     8    3   13 1
     9    3    4 am
    10    4    5 2
    11    4    6 1
    12    6   11 ar
    13    6    7 ar
    14    7    8 ar
    15    7   31 1
    16    8    9 ar
    17    8   25 1
    18    9   10 ar
    19    9   32 1
    20   10   11 ar
    21   10   33 1
    22   11   12 1
    23   12   13 2
    24   13   14 1
    25   14   15 1
    26   15   16 1
    27   15   34 1
    28   15   35 1
    29   16   17 2
    30   16   18 am
    31   18   19 1
    32   18   36 1
    33   19   23 2
    34   19   20 1
    35   20   21 2
    36   20   37 1
    37   21   22 1
    38   21   24 1
    39   22   23 1
    40   24   38 1
    41   24   39 1
    42   24   40 1
@<TRIPOS>MOLECULE
ZINC32899964
   60    63     0     0     0
SMALL
USER_CHARGES
6-cyclopropyl-N,1,3-trimethyl-N-[2-oxo-2-(2,4,6-trimethylanilino)ethyl]pyrazolo[3,4-b]pyridine-4-carboxamide
@<TRIPOS>ATOM
      1 C1         -0.2143   12.7943    1.7243 C.3       1 <0>        -0.1176
      2 C2          0.4572   11.5572    2.2625 C.ar      1 <0>        -0.0792
      3 C3          1.0195   11.5716    3.5258 C.ar      1 <0>        -0.1205
      4 C4          1.6356   10.4394    4.0219 C.ar      1 <0>        -0.0862
      5 C5          1.6896    9.2857    3.2509 C.ar      1 <0>         0.1289
      6 C6          1.1282    9.2759    1.9808 C.ar      1 <0>        -0.0585
      7 C7          0.5092   10.4099    1.4923 C.ar      1 <0>        -0.1193
      8 C8          1.1895    8.0278    1.1385 C.3       1 <0>        -0.1358
      9 N1          2.3135    8.1371    3.7505 N.am      1 <0>        -0.6831
     10 C9          1.6280    6.9797    3.8332 C.2       1 <0>         0.4958
     11 O1          0.4856    6.9214    3.4299 O.2       1 <0>        -0.5087
     12 C10         2.2808    5.7581    4.4269 C.3       1 <0>         0.0957
     13 N2          1.3356    4.6390    4.4030 N.am      1 <0>        -0.5895
     14 C11         0.4403    4.4120    5.5402 C.3       1 <0>         0.0650
     15 C12         1.2897    3.8183    3.3349 C.2       1 <0>         0.5714
     16 O2          2.0978    3.9452    2.4358 O.2       1 <0>        -0.5122
     17 C13         0.2564    2.7636    3.2568 C.ar      1 <0>         0.0065
     18 C14        -1.0978    3.0736    3.3640 C.ar      1 <0>        -0.1865
     19 C15        -2.0362    2.0556    3.2906 C.ar      1 <0>         0.2107
     20 N3         -1.6823    0.8020    3.1116 N.ar      1 <0>        -0.4930
     21 C16        -0.4125    0.4409    2.9968 C.ar      1 <0>         0.3226
     22 C17         0.6093    1.4095    3.0650 C.ar      1 <0>        -0.1964
     23 C18         1.8368    0.7303    2.9120 C.2       1 <0>         0.1153
     24 N4          1.5923   -0.5403    2.7631 N.2       1 <0>        -0.2368
     25 N5          0.2113   -0.7652    2.8092 N.pl3     1 <0>        -0.3898
     26 C19        -0.4523   -2.0648    2.6793 C.3       1 <0>         0.1104
     27 C20         3.2020    1.3684    2.9190 C.3       1 <0>        -0.0843
     28 C21        -3.4993    2.3952    3.4132 C.3       1 <0>        -0.2044
     29 C22        -3.9013    3.8611    3.2385 C.3       1 <0>        -0.1166
     30 C23        -4.2296    2.8415    2.1449 C.3       1 <0>        -0.1072
     31 C24         2.2482   10.4560    5.3987 C.3       1 <0>        -0.1146
     32 H1         -0.1566   13.5980    2.4731 H         1 <0>         0.0657
     33 H2         -1.2691   12.5728    1.5046 H         1 <0>         0.0705
     34 H3          0.2927   13.1150    0.8023 H         1 <0>         0.0704
     35 H4          0.9772   12.4692    4.1249 H         1 <0>         0.1241
     36 H5          0.0691   10.4018    0.5061 H         1 <0>         0.1232
     37 H6          0.6957    8.2124    0.1731 H         1 <0>         0.0589
     38 H7          0.6770    7.2070    1.6615 H         1 <0>         0.1035
     39 H8          2.2406    7.7530    0.9661 H         1 <0>         0.0615
     40 H9          3.3635    8.1788    4.0757 H         1 <0>         0.4306
     41 H10         3.1732    5.4970    3.8391 H         1 <0>         0.1220
     42 H11         2.5746    5.9678    5.4660 H         1 <0>         0.1161
     43 H12        -0.1905    3.5332    5.3405 H         1 <0>         0.0853
     44 H13        -0.1979    5.2959    5.6865 H         1 <0>         0.0723
     45 H14         1.0371    4.2365    6.4474 H         1 <0>         0.0695
     46 H15        -1.4132    4.0966    3.5068 H         1 <0>         0.1519
     47 H16         0.3045   -2.8505    2.5381 H         1 <0>         0.0976
     48 H17        -1.1280   -2.0464    1.8115 H         1 <0>         0.0798
     49 H18        -1.0317   -2.2733    3.5908 H         1 <0>         0.0797
     50 H19         3.9698    0.5932    2.7788 H         1 <0>         0.0792
     51 H20         3.3647    1.8757    3.8814 H         1 <0>         0.0769
     52 H21         3.2680    2.1020    2.1020 H         1 <0>         0.1012
     53 H22        -3.6615    1.6242    4.1808 H         1 <0>         0.1411
     54 H23        -4.5793    4.1550    4.0533 H         1 <0>         0.1120
     55 H24        -3.0017    4.4936    3.2640 H         1 <0>         0.1070
     56 H25        -3.6012    2.6315    1.2668 H         1 <0>         0.1008
     57 H26        -5.1789    2.2929    2.0561 H         1 <0>         0.1110
     58 H27         2.6879    9.4715    5.6163 H         1 <0>         0.0636
     59 H28         1.4709   10.6830    6.1432 H         1 <0>         0.0710
     60 H29         3.0329   11.2256    5.4416 H         1 <0>         0.0715
@<TRIPOS>BOND
     1    1    2 1
     2    1   32 1
     3    1   33 1
     4    1   34 1
     5    2    7 ar
     6    2    3 ar
     7    3    4 ar
     8    3   35 1
     9    4    5 ar
    10    4   31 1
    11    5    6 ar
    12    5    9 1
    13    6    7 ar
    14    6    8 1
    15    7   36 1
    16    8   37 1
    17    8   38 1
    18    8   39 1
    19    9   10 am
    20    9   40 1
    21   10   11 2
    22   10   12 1
    23   12   13 1
    24   12   41 1
    25   12   42 1
    26   13   14 1
    27   13   15 am
    28   14   43 1
    29   14   44 1
    30   14   45 1
    31   15   16 2
    32   15   17 1
    33   17   22 ar
    34   17   18 ar
    35   18   19 ar
    36   18   46 1
    37   19   20 ar
    38   19   28 1
    39   20   21 ar
    40   21   25 1
    41   21   22 ar
    42   22   23 1
    43   23   24 2
    44   23   27 1
    45   24   25 1
    46   25   26 1
    47   26   47 1
    48   26   48 1
    49   26   49 1
    50   27   50 1
    51   27   51 1
    52   27   52 1
    53   28   30 1
    54   28   29 1
    55   28   53 1
    56   29   30 1
    57   29   54 1
    58   29   55 1
    59   30   56 1
    60   30   57 1
    61   31   58 1
    62   31   59 1
    63   31   60 1
@<TRIPOS>MOLECULE
ZINC38695399
   52    55     0     0     0
SMALL
USER_CHARGES

@<TRIPOS>ATOM
      1 C1         -1.2996    1.2086    0.1865 C.3       1 <0>        -0.1124
      2 C2         -0.6271   -0.1357    0.0784 C.ar      1 <0>        -0.1344
      3 C3         -0.6258   -0.8118   -1.1267 C.ar      1 <0>        -0.0612
      4 C4         -0.0105   -2.0442   -1.2301 C.ar      1 <0>        -0.1802
      5 C5          0.6096   -2.6080   -0.1213 C.ar      1 <0>         0.2247
      6 C6          0.6104   -1.9312    1.0901 C.ar      1 <0>        -0.1493
      7 C7         -0.0041   -0.6910    1.1889 C.ar      1 <0>         0.1697
      8 N1         -0.0010   -0.0030    2.4072 N.am      1 <0>        -0.6652
      9 C8         -0.0768   -0.6856    3.5668 C.2       1 <0>         0.5202
     10 O1         -0.0677   -1.8984    3.5583 O.2       1 <0>        -0.5058
     11 C9         -0.1729    0.0580    4.8741 C.3       1 <0>        -0.1249
     12 H1          0.6906    0.7080    5.0152 H         1 <0>         0.1392
     13 C10        -1.4907    0.8627    4.9573 C.3       1 <0>        -0.1443
     14 C11        -2.4511   -0.0700    5.6618 C.2       1 <0>         0.5165
     15 O2         -3.6570    0.0587    5.6799 O.2       1 <0>        -0.5008
     16 N2         -1.7736   -1.0623    6.2644 N.am      1 <0>        -0.5535
     17 C12        -0.3263   -0.9225    6.0579 C.3       1 <0>         0.1087
     18 C13        -2.3709   -2.0967    6.9951 C.ar      1 <0>         0.1579
     19 C14        -3.7541   -2.2130    7.0320 C.ar      1 <0>        -0.1272
     20 C15        -4.3413   -3.2339    7.7534 C.ar      1 <0>        -0.1230
     21 C16        -3.5517   -4.1409    8.4400 C.ar      1 <0>         0.0740
     22 C17        -2.1721   -4.0266    8.4045 C.ar      1 <0>        -0.1246
     23 C18        -1.5808   -3.0108    7.6792 C.ar      1 <0>        -0.1259
     24 F1         -4.1281   -5.1383    9.1458 F         1 <0>        -0.1395
     25 N3          1.2309   -3.8545   -0.2262 N.pl3     1 <0>        -0.9287
     26 C19         1.4691   -4.8224    0.8597 C.3       1 <0>         0.0626
     27 C20         1.4823   -6.2633    0.3162 C.3       1 <0>        -0.1294
     28 C21         2.3648   -6.2033   -0.9669 C.3       1 <0>        -0.5879
     29 S1          1.8520   -4.5600   -1.6142 S.o2      1 <0>         2.5556
     30 O3          0.7490   -4.6883   -2.5009 O.2       1 <0>        -0.9436
     31 O4          2.9885   -3.7804   -1.9602 O.2       1 <0>        -0.9421
     32 H2         -0.5819    1.9940   -0.0503 H         1 <0>         0.0722
     33 H3         -2.1334    1.2550   -0.5140 H         1 <0>         0.0735
     34 H4         -1.6700    1.3489    1.2020 H         1 <0>         0.0615
     35 H5         -1.1073   -0.3759   -1.9896 H         1 <0>         0.1362
     36 H6         -0.0115   -2.5703   -2.1733 H         1 <0>         0.1355
     37 H7          1.0912   -2.3672    1.9532 H         1 <0>         0.1455
     38 H8          0.0557    0.9653    2.4172 H         1 <0>         0.4148
     39 H9         -1.3460    1.7725    5.5400 H         1 <0>         0.1285
     40 H10        -1.8552    1.1023    3.9584 H         1 <0>         0.1129
     41 H11         0.1147   -1.8875    5.8080 H         1 <0>         0.1083
     42 H12         0.1445   -0.5119    6.9512 H         1 <0>         0.0967
     43 H13        -4.3703   -1.5054    6.4972 H         1 <0>         0.1629
     44 H14        -5.4171   -3.3247    7.7823 H         1 <0>         0.1407
     45 H15        -1.5580   -4.7348    8.9410 H         1 <0>         0.1409
     46 H16        -0.5047   -2.9247    7.6482 H         1 <0>         0.1362
     47 H17         2.4294   -4.6069    1.3281 H         1 <0>         0.0862
     48 H18         0.6791   -4.7273    1.6047 H         1 <0>         0.1062
     49 H19         1.9236   -6.9400    1.0480 H         1 <0>         0.1201
     50 H20         0.4708   -6.5828    0.0655 H         1 <0>         0.0995
     51 H21         3.4263   -6.2234   -0.7202 H         1 <0>         0.1477
     52 H22         2.1065   -7.0002   -1.6642 H         1 <0>         0.1489
@<TRIPOS>BOND
     1    1    2 1
     2    1   32 1
     3    1   33 1
     4    1   34 1
     5    2    7 ar
     6    2    3 ar
     7    3    4 ar
     8    3   35 1
     9    4    5 ar
    10    4   36 1
    11    5    6 ar
    12    5   25 1
    13    6    7 ar
    14    6   37 1
    15    7    8 1
    16    8    9 am
    17    8   38 1
    18    9   10 2
    19    9   11 1
    20   11   12 1
    21   11   17 1
    22   11   13 1
    23   13   14 1
    24   13   39 1
    25   13   40 1
    26   14   15 2
    27   14   16 am
    28   16   17 1
    29   16   18 1
    30   17   41 1
    31   17   42 1
    32   18   23 ar
    33   18   19 ar
    34   19   20 ar
    35   19   43 1
    36   20   21 ar
    37   20   44 1
    38   21   22 ar
    39   21   24 1
    40   22   23 ar
    41   22   45 1
    42   23   46 1
    43   25   29 1
    44   25   26 1
    45   26   27 1
    46   26   47 1
    47   26   48 1
    48   27   28 1
    49   27   49 1
    50   27   50 1
    51   28   29 1
    52   28   51 1
    53   28   52 1
    54   29   30 2
    55   29   31 2
@<TRIPOS>MOLECULE
ZINC15321589
   60    64     0     0     0
SMALL
USER_CHARGES

@<TRIPOS>ATOM
      1 C1          0.6192   -0.2297   -1.3772 C.3       1 <0>        -0.1482
      2 C2          0.0012   -0.0018    0.0038 C.3       1 <0>        -0.0880
      3 C3         -1.4123   -0.5240    0.0140 C.ar      1 <0>        -0.0685
      4 C4         -2.4578    0.3079   -0.3423 C.ar      1 <0>        -0.1072
      5 C5         -3.7545   -0.1679   -0.3339 C.ar      1 <0>        -0.0927
      6 C6         -4.0075   -1.4829    0.0324 C.ar      1 <0>         0.1012
      7 C7         -2.9558   -2.3158    0.3892 C.ar      1 <0>        -0.0955
      8 C8         -1.6607   -1.8357    0.3742 C.ar      1 <0>        -0.1075
      9 N1         -5.3226   -1.9686    0.0423 N.am      1 <0>        -0.5247
     10 C9         -5.9611   -2.3079    1.1691 C.2       1 <0>         0.5324
     11 O1         -5.4971   -2.2395    2.2869 O.2       1 <0>        -0.4666
     12 C10        -7.3539   -2.7897    0.8262 C.3       1 <0>        -0.1540
     13 C11        -7.4102   -2.6688   -0.7103 C.3       1 <0>         0.0521
     14 H1         -7.5722   -3.6455   -1.1663 H         1 <0>         0.1038
     15 C12        -6.0453   -2.1260   -1.0736 C.2       1 <0>         0.5422
     16 O2         -5.6654   -1.8759   -2.1973 O.2       1 <0>        -0.4605
     17 N2         -8.4637   -1.7291   -1.1167 N.3       1 <0>        -0.5171
     18 C13        -9.7640   -2.1233   -0.5599 C.3       1 <0>         0.0414
     19 C14       -10.8032   -1.0443   -0.8751 C.3       1 <0>        -0.1146
     20 C15       -10.8994   -0.8643   -2.3905 C.3       1 <0>         0.1422
     21 C16        -9.5243   -0.5118   -2.9589 C.3       1 <0>        -0.1131
     22 C17        -8.5249   -1.6073   -2.5788 C.3       1 <0>         0.0348
     23 C18       -11.4165   -2.1257   -3.0303 C.2       1 <0>         0.5305
     24 O3        -10.8803   -3.2123   -2.9781 O.2       1 <0>        -0.5038
     25 N3        -12.5679   -1.8540   -3.6675 N.am      1 <0>        -0.7329
     26 C19       -12.9097   -0.4401   -3.5159 C.3       1 <0>         0.3403
     27 N4        -11.8610    0.1975   -2.7094 N.pl3     1 <0>        -0.6365
     28 C20       -11.7929    1.5386   -2.3248 C.ar      1 <0>         0.2431
     29 C21       -10.7244    1.9902   -1.5606 C.ar      1 <0>        -0.1917
     30 C22       -10.6598    3.3169   -1.1826 C.ar      1 <0>        -0.0715
     31 C23       -11.6576    4.1953   -1.5635 C.ar      1 <0>        -0.1700
     32 C24       -12.7227    3.7491   -2.3242 C.ar      1 <0>        -0.0721
     33 C25       -12.7905    2.4249   -2.7106 C.ar      1 <0>        -0.1895
     34 H2          1.6416    0.1480   -1.3846 H         1 <0>         0.0604
     35 H3          0.6243   -1.2964   -1.6014 H         1 <0>         0.0565
     36 H4          0.0318    0.2969   -2.1294 H         1 <0>         0.0568
     37 H5          0.5886   -0.5283    0.7560 H         1 <0>         0.0751
     38 H6         -0.0039    1.0649    0.2280 H         1 <0>         0.0752
     39 H7         -2.2604    1.3307   -0.6271 H         1 <0>         0.1312
     40 H8         -4.5708    0.4824   -0.6116 H         1 <0>         0.1269
     41 H9         -3.1496   -3.3392    0.6748 H         1 <0>         0.1257
     42 H10        -0.8417   -2.4843    0.6481 H         1 <0>         0.1312
     43 H11        -7.4879   -3.8265    1.1346 H         1 <0>         0.1274
     44 H12        -8.1058   -2.1505    1.2891 H         1 <0>         0.1346
     45 H13       -10.0768   -3.0692   -1.0020 H         1 <0>         0.0662
     46 H14        -9.6765   -2.2387    0.5205 H         1 <0>         0.0883
     47 H15       -11.7736   -1.3477   -0.4823 H         1 <0>         0.0780
     48 H16       -10.5017   -0.1032   -0.4152 H         1 <0>         0.0952
     49 H17        -9.5874   -0.4374   -4.0445 H         1 <0>         0.0764
     50 H18        -9.1936    0.4415   -2.5467 H         1 <0>         0.0938
     51 H19        -7.5384   -1.3484   -2.9634 H         1 <0>         0.1008
     52 H20        -8.8449   -2.5562   -3.0092 H         1 <0>         0.0637
     53 H21       -13.0965   -2.5027   -4.1580 H         1 <0>         0.4266
     54 H22       -12.9600    0.0339   -4.4962 H         1 <0>         0.0760
     55 H23       -13.8712   -0.3455   -3.0113 H         1 <0>         0.0764
     56 H24        -9.9451    1.3045   -1.2622 H         1 <0>         0.1329
     57 H25        -9.8294    3.6687   -0.5884 H         1 <0>         0.1235
     58 H26       -11.6051    5.2322   -1.2659 H         1 <0>         0.1201
     59 H27       -13.5002    4.4378   -2.6200 H         1 <0>         0.1233
     60 H28       -13.6202    2.0780   -3.3085 H         1 <0>         0.1199
@<TRIPOS>BOND
     1    1    2 1
     2    1   34 1
     3    1   35 1
     4    1   36 1
     5    2    3 1
     6    2   37 1
     7    2   38 1
     8    3    8 ar
     9    3    4 ar
    10    4    5 ar
    11    4   39 1
    12    5    6 ar
    13    5   40 1
    14    6    7 ar
    15    6    9 1
    16    7    8 ar
    17    7   41 1
    18    8   42 1
    19    9   15 am
    20    9   10 am
    21   10   11 2
    22   10   12 1
    23   12   13 1
    24   12   43 1
    25   12   44 1
    26   13   14 1
    27   13   15 1
    28   13   17 1
    29   15   16 2
    30   17   22 1
    31   17   18 1
    32   18   19 1
    33   18   45 1
    34   18   46 1
    35   19   20 1
    36   19   47 1
    37   19   48 1
    38   20   27 1
    39   20   21 1
    40   20   23 1
    41   21   22 1
    42   21   49 1
    43   21   50 1
    44   22   51 1
    45   22   52 1
    46   23   24 2
    47   23   25 am
    48   25   26 1
    49   25   53 1
    50   26   27 1
    51   26   54 1
    52   26   55 1
    53   27   28 1
    54   28   33 ar
    55   28   29 ar
    56   29   30 ar
    57   29   56 1
    58   30   31 ar
    59   30   57 1
    60   31   32 ar
    61   31   58 1
    62   32   33 ar
    63   32   59 1
    64   33   60 1
@<TRIPOS>MOLECULE
ZINC08800613
   57    59     0     0     0
SMALL
USER_CHARGES
N-[2-dimethylamino-2-(1-methylindolin-5-yl)-ethyl]-2,4-dimethyl-benzenesulfonamide
@<TRIPOS>ATOM
      1 C1          3.8522    5.3414    3.2389 C.3       1 <0>        -0.1318
      2 C2          3.4071    3.9678    2.8076 C.ar      1 <0>        -0.0123
      3 C3          4.0028    3.3581    1.7191 C.ar      1 <0>        -0.1434
      4 C4          3.5942    2.0985    1.3233 C.ar      1 <0>        -0.0115
      5 C5          2.5897    1.4481    2.0159 C.ar      1 <0>        -0.6936
      6 C6          1.9906    2.0598    3.1009 C.ar      1 <0>         0.0172
      7 C7          2.4030    3.3177    3.5000 C.ar      1 <0>        -0.1435
      8 C8          0.8915    1.3536    3.8520 C.3       1 <0>        -0.1396
      9 S1          2.0685   -0.1575    1.5109 S.o2      1 <0>         2.6950
     10 O1          2.0555   -0.9663    2.6792 O.2       1 <0>        -0.9366
     11 O2          2.8353   -0.4908    0.3620 O.2       1 <0>        -0.9421
     12 N1          0.4959   -0.0263    1.0087 N.pl3     1 <0>        -1.1355
     13 C9          0.1678    0.7826   -0.1679 C.3       1 <0>         0.0952
     14 C10        -1.2259    0.4050   -0.6739 C.3       1 <0>         0.0845
     15 H1         -1.2174   -0.6265   -1.0263 H         1 <0>         0.1521
     16 C11        -1.6139    1.3197   -1.8069 C.ar      1 <0>        -0.1813
     17 C12        -1.4713    2.6888   -1.6717 C.ar      1 <0>        -0.0770
     18 C13        -1.8230    3.5297   -2.7067 C.ar      1 <0>        -0.1370
     19 C14        -2.3351    3.0058   -3.8927 C.ar      1 <0>         0.1405
     20 C15        -2.4751    1.6289   -4.0181 C.ar      1 <0>        -0.1369
     21 C16        -2.1184    0.7921   -2.9815 C.ar      1 <0>        -0.0399
     22 C17        -3.0359    1.3400   -5.3964 C.3       1 <0>        -0.0894
     23 C18        -2.7966    2.6687   -6.1498 C.3       1 <0>         0.0419
     24 N2         -2.7649    3.6609   -5.0534 N.pl3     1 <0>        -0.4795
     25 C19        -1.8763    4.7829   -5.3843 C.3       1 <0>         0.0121
     26 C20        -2.3824    1.9510    0.7873 C.3       1 <0>        -0.0594
     27 C21        -3.4790   -0.0837    0.0659 C.3       1 <0>        -0.0432
     28 H2          3.2577    6.0949    2.7223 H         1 <0>         0.0832
     29 H3          3.7159    5.4463    4.3153 H         1 <0>         0.0769
     30 H4          4.9051    5.4766    2.9911 H         1 <0>         0.0781
     31 H5          4.7871    3.8662    1.1778 H         1 <0>         0.1375
     32 H6          4.0592    1.6223    0.4727 H         1 <0>         0.1460
     33 H7          1.9374    3.7941    4.3501 H         1 <0>         0.1353
     34 H8          1.3204    0.7976    4.6857 H         1 <0>         0.1023
     35 H9          0.1812    2.0878    4.2320 H         1 <0>         0.0859
     36 H10         0.3780    0.6644    3.1815 H         1 <0>         0.0527
     37 H11        -0.2079   -0.4850    1.4935 H         1 <0>         0.4077
     38 H12         0.9016    0.5973   -0.9523 H         1 <0>         0.1314
     39 H13         0.1827    1.8386    0.1015 H         1 <0>         0.0951
     40 H14        -1.0792    3.1007   -0.7536 H         1 <0>         0.1339
     41 H15        -1.7049    4.5976   -2.5966 H         1 <0>         0.1349
     42 H16        -2.2330   -0.2766   -3.0872 H         1 <0>         0.1334
     43 H17        -2.4917    0.5236   -5.8712 H         1 <0>         0.0918
     44 H18        -4.1008    1.1144   -5.3404 H         1 <0>         0.0960
     45 H19        -1.8440    2.6469   -6.6792 H         1 <0>         0.0713
     46 H20        -3.6155    2.8755   -6.8388 H         1 <0>         0.1060
     47 H21        -2.2315    5.2725   -6.2910 H         1 <0>         0.0867
     48 H22        -1.8733    5.4987   -4.5622 H         1 <0>         0.0798
     49 H23        -0.8647    4.4101   -5.5451 H         1 <0>         0.0475
     50 H24        -2.8696    2.4791   -0.0323 H         1 <0>         0.1343
     51 H25        -3.0032    2.0150    1.6809 H         1 <0>         0.1257
     52 H26        -1.4116    2.4051    0.9861 H         1 <0>         0.1213
     53 H27        -3.3086   -1.1171   -0.2358 H         1 <0>         0.1232
     54 H28        -4.1442   -0.0621    0.9292 H         1 <0>         0.1250
     55 H29        -3.9352    0.4649   -0.7581 H         1 <0>         0.1262
     56 N3         -2.1867    0.5270    0.4426 N.4       1 <0>        -0.3962
     57 H30        -1.8110    0.0343    1.2613 H         1 <0>         0.4222
@<TRIPOS>BOND
     1    1    2 1
     2    1   28 1
     3    1   29 1
     4    1   30 1
     5    2    7 ar
     6    2    3 ar
     7    3    4 ar
     8    3   31 1
     9    4    5 ar
    10    4   32 1
    11    5    6 ar
    12    5    9 1
    13    6    7 ar
    14    6    8 1
    15    7   33 1
    16    8   34 1
    17    8   35 1
    18    8   36 1
    19    9   10 2
    20    9   11 2
    21    9   12 1
    22   12   13 1
    23   12   37 1
    24   13   14 1
    25   13   38 1
    26   13   39 1
    27   14   15 1
    28   14   16 1
    29   14   56 1
    30   16   21 ar
    31   16   17 ar
    32   17   18 ar
    33   17   40 1
    34   18   19 ar
    35   18   41 1
    36   19   24 1
    37   19   20 ar
    38   20   21 ar
    39   20   22 1
    40   21   42 1
    41   22   23 1
    42   22   43 1
    43   22   44 1
    44   23   24 1
    45   23   45 1
    46   23   46 1
    47   24   25 1
    48   25   47 1
    49   25   48 1
    50   25   49 1
    51   26   50 1
    52   26   51 1
    53   26   52 1
    54   26   56 1
    55   27   53 1
    56   27   54 1
    57   27   55 1
    58   27   56 1
    59   56   57 1
@<TRIPOS>MOLECULE
ZINC25383041
   56    58     0     0     0
SMALL
USER_CHARGES
N-[(2S)-2-dimethylamino-2-(4-ethylphenyl)ethyl]-2-(1-methylene-3-oxo-isoindolin-2-yl)acetamide
@<TRIPOS>ATOM
      1 C1          8.0927    0.3021   -8.8349 C.3       1 <0>        -0.1501
      2 C2          7.0791    1.2937   -8.2603 C.3       1 <0>        -0.1016
      3 C3          7.5109    1.7089   -6.8775 C.ar      1 <0>        -0.0370
      4 C4          8.3327    2.8080   -6.7109 C.ar      1 <0>        -0.1126
      5 C5          8.7291    3.1886   -5.4425 C.ar      1 <0>        -0.0802
      6 C6          8.3039    2.4702   -4.3407 C.ar      1 <0>        -0.1582
      7 C7          7.4864    1.3681   -4.5077 C.ar      1 <0>        -0.1018
      8 C8          7.0856    0.9905   -5.7757 C.ar      1 <0>        -0.1120
      9 C9          8.7365    2.8849   -2.9580 C.3       1 <0>         0.0787
     10 H1          9.2237    3.8702   -3.0013 H         1 <0>         0.1491
     11 C10         7.5199    2.9156   -2.0307 C.3       1 <0>         0.1041
     12 N1          7.9534    3.2266   -0.6663 N.am      1 <0>        -0.7608
     13 C11         7.0389    3.4014    0.3081 C.2       1 <0>         0.5028
     14 O1          5.8569    3.3011    0.0554 O.2       1 <0>        -0.4950
     15 C12         7.4849    3.7214    1.7115 C.3       1 <0>         0.1029
     16 N2          6.3111    3.8625    2.5767 N.am      1 <0>        -0.5483
     17 C13         5.6276    5.0567    2.8077 C.2       1 <0>         0.1367
     18 C14         5.9273    6.2493    2.2853 C.2       1 <0>        -0.1905
     19 C15         4.5145    4.7669    3.7328 C.ar      1 <0>        -0.0482
     20 C16         3.5150    5.5400    4.3105 C.ar      1 <0>        -0.0895
     21 C17         2.5980    4.9519    5.1593 C.ar      1 <0>        -0.0807
     22 C18         2.6631    3.5949    5.4336 C.ar      1 <0>        -0.1179
     23 C19         3.6526    2.8127    4.8741 C.ar      1 <0>        -0.0382
     24 C20         4.5868    3.3882    4.0160 C.ar      1 <0>        -0.1641
     25 C21         5.7359    2.8598    3.2643 C.2       1 <0>         0.5757
     26 O2          6.1067    1.7013    3.2650 O.2       1 <0>        -0.5016
     27 N3          9.7201    1.9228   -2.4435 N.4       1 <0>        -0.3981
     28 C22         9.2136    0.5475   -2.5437 C.3       1 <0>        -0.0671
     29 C23        11.0064    2.0621   -3.1392 C.3       1 <0>        -0.0490
     30 H2          7.7775   -0.0009   -9.8443 H         1 <0>         0.0689
     31 H3          8.1467   -0.5845   -8.1860 H         1 <0>         0.0571
     32 H4          9.0826    0.7788   -8.8876 H         1 <0>         0.0575
     33 H5          7.0251    2.1803   -8.9092 H         1 <0>         0.0826
     34 H6          6.0891    0.8170   -8.2076 H         1 <0>         0.0824
     35 H7          8.6652    3.3690   -7.5717 H         1 <0>         0.1365
     36 H8          9.3715    4.0470   -5.3124 H         1 <0>         0.1326
     37 H9          7.1577    0.8042   -3.6472 H         1 <0>         0.1313
     38 H10         6.4439    0.1317   -5.9058 H         1 <0>         0.1362
     39 H11         6.8150    3.6862   -2.3761 H         1 <0>         0.1163
     40 H12         7.0245    1.9335   -2.0431 H         1 <0>         0.0940
     41 H13         9.0254    3.3175   -0.4371 H         1 <0>         0.4100
     42 H14         8.1224    2.9079    2.0881 H         1 <0>         0.1269
     43 H15         8.0543    4.6625    1.7097 H         1 <0>         0.1248
     44 H16         5.3171    7.1292    2.5372 H         1 <0>         0.1368
     45 H17         6.7843    6.3513    1.6032 H         1 <0>         0.1120
     46 H18         3.4556    6.5970    4.0968 H         1 <0>         0.1363
     47 H19         1.8210    5.5528    5.6084 H         1 <0>         0.1400
     48 H20         1.9365    3.1469    6.0952 H         1 <0>         0.1398
     49 H21         3.7000    1.7570    5.0972 H         1 <0>         0.1368
     50 H22         9.9683   -0.1506   -2.1525 H         1 <0>         0.1286
     51 H23         9.0051    0.3094   -3.5972 H         1 <0>         0.1323
     52 H24         8.2882    0.4539   -1.9565 H         1 <0>         0.1234
     53 H25        11.7227    1.3316   -2.7352 H         1 <0>         0.1282
     54 H26        11.3963    3.0796   -2.9888 H         1 <0>         0.1256
     55 H27        10.8634    1.8794   -4.2144 H         1 <0>         0.1218
     56 H28         9.8857    2.1453   -1.3790 H         1 <0>         0.4336
@<TRIPOS>BOND
     1    1    2 1
     2    1   30 1
     3    1   31 1
     4    1   32 1
     5    2    3 1
     6    2   33 1
     7    2   34 1
     8    3    8 ar
     9    3    4 ar
    10    4    5 ar
    11    4   35 1
    12    5    6 ar
    13    5   36 1
    14    6    7 ar
    15    6    9 1
    16    7    8 ar
    17    7   37 1
    18    8   38 1
    19    9   10 1
    20    9   11 1
    21    9   27 1
    22   11   12 1
    23   11   39 1
    24   11   40 1
    25   12   13 am
    26   12   41 1
    27   13   14 2
    28   13   15 1
    29   15   16 1
    30   15   42 1
    31   15   43 1
    32   16   25 am
    33   16   17 1
    34   17   18 2
    35   17   19 1
    36   18   44 1
    37   18   45 1
    38   19   24 ar
    39   19   20 ar
    40   20   21 ar
    41   20   46 1
    42   21   22 ar
    43   21   47 1
    44   22   23 ar
    45   22   48 1
    46   23   24 ar
    47   23   49 1
    48   24   25 1
    49   25   26 2
    50   27   28 1
    51   27   29 1
    52   27   56 1
    53   28   50 1
    54   28   51 1
    55   28   52 1
    56   29   53 1
    57   29   54 1
    58   29   55 1
@<TRIPOS>MOLECULE
ZINC49799188
   56    57     0     0     0
SMALL
USER_CHARGES

@<TRIPOS>ATOM
      1 C1         -1.1413    0.7163   -0.1910 C.3       1 <0>        -0.1497
      2 C2         -0.7472   -0.7603   -0.1199 C.3       1 <0>        -0.0981
      3 C3          0.1099   -1.1093   -1.3093 C.ar      1 <0>        -0.0452
      4 C4         -0.4783   -1.5557   -2.4778 C.ar      1 <0>        -0.1026
      5 C5          0.3078   -1.8759   -3.5689 C.ar      1 <0>        -0.0893
      6 C6          1.6822   -1.7492   -3.4915 C.ar      1 <0>        -0.1492
      7 C7          2.2704   -1.3019   -2.3232 C.ar      1 <0>        -0.1141
      8 C8          1.4839   -0.9776   -1.2336 C.ar      1 <0>        -0.1009
      9 C9          2.5393   -2.0991   -4.6806 C.3       1 <0>         0.0665
     10 H1          1.9785   -2.7465   -5.3547 H         1 <0>         0.1481
     11 C10         2.9374   -0.8184   -5.4169 C.3       1 <0>         0.1252
     12 N1          1.7390   -0.1762   -5.9625 N.am      1 <0>        -0.7425
     13 C11         1.8542    0.9324   -6.7202 C.2       1 <0>         0.7127
     14 O1          2.9528    1.3996   -6.9510 O.2       1 <0>        -0.5754
     15 N2          0.7517    1.5232   -7.2222 N.am      1 <0>        -0.6201
     16 C12        -0.5720    0.9603   -6.9441 C.3       1 <0>         0.0739
     17 C13         0.8770    2.7282   -8.0458 C.3       1 <0>         0.1666
     18 C14         1.0182    2.3346   -9.4936 C.ar      1 <0>        -0.0875
     19 C15         2.2752    2.1117  -10.0272 C.ar      1 <0>        -0.0945
     20 C16         2.4117    1.7512  -11.3517 C.ar      1 <0>        -0.0738
     21 C17         1.2776    1.6109  -12.1542 C.ar      1 <0>        -0.0168
     22 C18         0.0122    1.8370  -11.6091 C.ar      1 <0>        -0.0729
     23 C19        -0.1101    2.1923  -10.2818 C.ar      1 <0>        -0.1058
     24 C20         1.4119    1.2374  -13.5301 C.1       1 <0>         0.2431
     25 N3          1.5183    0.9410  -14.6216 N.1       1 <0>        -0.4025
     26 N4          3.7484   -2.7974   -4.2241 N.4       1 <0>        -0.3807
     27 C21         3.3651   -4.0034   -3.4780 C.3       1 <0>        -0.0489
     28 C22         4.5620   -3.1786   -5.3863 C.3       1 <0>        -0.0552
     29 H2         -0.2425    1.3330   -0.1846 H         1 <0>         0.0573
     30 H3         -1.7010    0.8992   -1.1083 H         1 <0>         0.0577
     31 H4         -1.7612    0.9688    0.6693 H         1 <0>         0.0677
     32 H5         -0.1875   -0.9432    0.7974 H         1 <0>         0.0802
     33 H6         -1.6459   -1.3770   -0.1262 H         1 <0>         0.0811
     34 H7         -1.5521   -1.6547   -2.5383 H         1 <0>         0.1370
     35 H8         -0.1517   -2.2253   -4.4816 H         1 <0>         0.1312
     36 H9          3.3441   -1.2032   -2.2626 H         1 <0>         0.1199
     37 H10         1.9431   -0.6246   -0.3220 H         1 <0>         0.1356
     38 H11         3.4299   -0.1380   -4.7222 H         1 <0>         0.0881
     39 H12         3.6201   -1.0642   -6.2302 H         1 <0>         0.0939
     40 H13         0.8626   -0.5489   -5.7784 H         1 <0>         0.4012
     41 H14        -0.9713    1.4042   -6.0322 H         1 <0>         0.0635
     42 H15        -1.2411    1.1768   -7.7769 H         1 <0>         0.0837
     43 H16        -0.4883   -0.1189   -6.8164 H         1 <0>         0.0623
     44 H17        -0.0121    3.3467   -7.9225 H         1 <0>         0.0965
     45 H18         1.7571    3.2910   -7.7348 H         1 <0>         0.1014
     46 H19         3.1515    2.2206   -9.4054 H         1 <0>         0.1394
     47 H20         3.3935    1.5782  -11.7671 H         1 <0>         0.1342
     48 H21        -0.8691    1.7302  -12.2242 H         1 <0>         0.1357
     49 H22        -1.0886    2.3635   -9.8578 H         1 <0>         0.1332
     50 H23         2.7615   -3.7206   -2.6156 H         1 <0>         0.1256
     51 H24         2.7873   -4.6629   -4.1254 H         1 <0>         0.1241
     52 H25         4.2623   -4.5216   -3.1392 H         1 <0>         0.1288
     53 H26         4.9466   -2.2810   -5.8706 H         1 <0>         0.1281
     54 H27         5.3953   -3.8000   -5.0584 H         1 <0>         0.1312
     55 H28         3.9477   -3.7375   -6.0922 H         1 <0>         0.1256
     56 H29         4.2834   -2.1869   -3.6247 H         1 <0>         0.4253
@<TRIPOS>BOND
     1    1    2 1
     2    1   29 1
     3    1   30 1
     4    1   31 1
     5    2    3 1
     6    2   32 1
     7    2   33 1
     8    3    8 ar
     9    3    4 ar
    10    4    5 ar
    11    4   34 1
    12    5    6 ar
    13    5   35 1
    14    6    7 ar
    15    6    9 1
    16    7    8 ar
    17    7   36 1
    18    8   37 1
    19    9   10 1
    20    9   11 1
    21    9   26 1
    22   11   12 1
    23   11   38 1
    24   11   39 1
    25   12   13 am
    26   12   40 1
    27   13   14 2
    28   13   15 am
    29   15   16 1
    30   15   17 1
    31   16   41 1
    32   16   42 1
    33   16   43 1
    34   17   18 1
    35   17   44 1
    36   17   45 1
    37   18   23 ar
    38   18   19 ar
    39   19   20 ar
    40   19   46 1
    41   20   21 ar
    42   20   47 1
    43   21   22 ar
    44   21   24 1
    45   22   23 ar
    46   22   48 1
    47   23   49 1
    48   24   25 3
    49   26   27 1
    50   26   28 1
    51   26   56 1
    52   27   50 1
    53   27   51 1
    54   27   52 1
    55   28   53 1
    56   28   54 1
    57   28   55 1
@<TRIPOS>MOLECULE
ZINC61470254
   67    69     0     0     0
SMALL
USER_CHARGES

@<TRIPOS>ATOM
      1 C1         -0.0178    1.4648    0.0101 C.3       1 <0>        -0.0565
      2 N1          0.0021   -0.0041    0.0020 N.4       1 <0>        -0.3835
      3 C2          0.7126   -0.4907    1.1921 C.3       1 <0>        -0.0118
      4 C3         -0.0711   -0.1034    2.4478 C.3       1 <0>        -0.1607
      5 C4          0.6689   -0.6103    3.6874 C.3       1 <0>         0.1258
      6 N2         -0.0815   -0.2395    4.8897 N.am      1 <0>        -0.7380
      7 C5          0.3835   -0.5834    6.1071 C.2       1 <0>         0.5101
      8 O1          1.4231   -1.2000    6.2071 O.2       1 <0>        -0.5057
      9 C6         -0.3884   -0.2020    7.3439 C.3       1 <0>         0.1202
     10 C7         -0.4778    1.3347    7.4537 C.3       1 <0>        -0.1234
     11 C8         -0.3205    1.5840    8.9770 C.3       1 <0>        -0.1335
     12 C9          0.6869    0.4753    9.3712 C.3       1 <0>         0.0963
     13 N3          0.3151   -0.6849    8.5411 N.am      1 <0>        -0.6062
     14 C10         0.5765   -1.9748    8.8319 C.2       1 <0>         0.5445
     15 O2          0.2216   -2.8514    8.0726 O.2       1 <0>        -0.5261
     16 C11         1.3096   -2.3277   10.1003 C.3       1 <0>        -0.0985
     17 C12         2.6879   -1.6635   10.0944 C.3       1 <0>        -0.1142
     18 C13         3.4322   -2.0218   11.3822 C.3       1 <0>        -0.1181
     19 C14         3.5982   -3.5403   11.4698 C.3       1 <0>        -0.1235
     20 C15         2.2198   -4.2044   11.4757 C.3       1 <0>        -0.1205
     21 C16         1.4755   -3.8461   10.1879 C.3       1 <0>        -0.0987
     22 C17         0.6897   -0.4778   -1.2066 C.3       1 <0>         0.0252
     23 C18        -0.0503    0.0290   -2.4461 C.3       1 <0>        -0.1403
     24 C19         0.6658   -0.4644   -3.7049 C.3       1 <0>        -0.1177
     25 C20         0.6866   -1.9942   -3.7133 C.3       1 <0>        -0.1318
     26 C21         1.4266   -2.5011   -2.4738 C.3       1 <0>        -0.1177
     27 C22         0.7104   -2.0077   -1.2150 C.3       1 <0>        -0.1425
     28 H1          1.0047    1.8421    0.0024 H         1 <0>         0.1234
     29 H2         -0.5450    1.8259   -0.8730 H         1 <0>         0.1269
     30 H3         -0.5280    1.8163    0.9069 H         1 <0>         0.1248
     31 H4          0.8051   -1.5756    1.1418 H         1 <0>         0.1372
     32 H5          1.7055   -0.0428    1.2310 H         1 <0>         0.1341
     33 H6         -0.1636    0.9815    2.4982 H         1 <0>         0.0949
     34 H7         -1.0641   -0.5514    2.4090 H         1 <0>         0.0945
     35 H8          0.7614   -1.6952    3.6370 H         1 <0>         0.0770
     36 H9          1.6618   -0.1623    3.7262 H         1 <0>         0.0763
     37 H10        -0.9130    0.2536    4.8097 H         1 <0>         0.4018
     38 H11        -1.3892   -0.6319    7.3034 H         1 <0>         0.1028
     39 H12         0.3325    1.8087    6.8996 H         1 <0>         0.0808
     40 H13        -1.4463    1.6908    7.1026 H         1 <0>         0.0929
     41 H14         0.0926    2.5740    9.1702 H         1 <0>         0.0931
     42 H15        -1.2704    1.4509    9.4948 H         1 <0>         0.0847
     43 H16         1.7057    0.7913    9.1470 H         1 <0>         0.0751
     44 H17         0.5885    0.2320   10.4291 H         1 <0>         0.0870
     45 H18         0.7397   -1.9743   10.9597 H         1 <0>         0.0964
     46 H19         3.2578   -2.0169    9.2350 H         1 <0>         0.0680
     47 H20         2.5697   -0.5817   10.0320 H         1 <0>         0.0696
     48 H21         4.4142   -1.5487   11.3780 H         1 <0>         0.0667
     49 H22         2.8623   -1.6684   12.2416 H         1 <0>         0.0648
     50 H23         4.1680   -3.8936   10.6105 H         1 <0>         0.0625
     51 H24         4.1284   -3.7955   12.3873 H         1 <0>         0.0652
     52 H25         2.3380   -5.2862   11.5381 H         1 <0>         0.0676
     53 H26         1.6499   -3.8510   12.3351 H         1 <0>         0.0635
     54 H27         0.4936   -4.3193   10.1921 H         1 <0>         0.0684
     55 H28         2.0454   -4.1995    9.3286 H         1 <0>         0.0693
     56 H29         1.7123   -0.1005   -1.2143 H         1 <0>         0.1371
     57 H30        -1.0729   -0.3483   -2.4384 H         1 <0>         0.0862
     58 H31        -0.0651    1.1189   -2.4401 H         1 <0>         0.0880
     59 H32         0.1386   -0.1033   -4.5880 H         1 <0>         0.0849
     60 H33         1.6884   -0.0871   -3.7127 H         1 <0>         0.0743
     61 H34        -0.3360   -2.3715   -3.7056 H         1 <0>         0.0702
     62 H35         1.1968   -2.3458   -4.6101 H         1 <0>         0.0797
     63 H36         1.4413   -3.5910   -2.4798 H         1 <0>         0.0852
     64 H37         2.4492   -2.1238   -2.4815 H         1 <0>         0.0745
     65 H38         1.2376   -2.3687   -0.3319 H         1 <0>         0.0878
     66 H39        -0.3122   -2.3849   -1.2073 H         1 <0>         0.0868
     67 H40        -0.9445   -0.3533    0.0092 H         1 <0>         0.4227
@<TRIPOS>BOND
     1    1    2 1
     2    1   28 1
     3    1   29 1
     4    1   30 1
     5    2    3 1
     6    2   22 1
     7    2   67 1
     8    3    4 1
     9    3   31 1
    10    3   32 1
    11    4    5 1
    12    4   33 1
    13    4   34 1
    14    5    6 1
    15    5   35 1
    16    5   36 1
    17    6    7 am
    18    6   37 1
    19    7    8 2
    20    7    9 1
    21    9   13 1
    22    9   10 1
    23    9   38 1
    24   10   11 1
    25   10   39 1
    26   10   40 1
    27   11   12 1
    28   11   41 1
    29   11   42 1
    30   12   13 1
    31   12   43 1
    32   12   44 1
    33   13   14 am
    34   14   15 2
    35   14   16 1
    36   16   21 1
    37   16   17 1
    38   16   45 1
    39   17   18 1
    40   17   46 1
    41   17   47 1
    42   18   19 1
    43   18   48 1
    44   18   49 1
    45   19   20 1
    46   19   50 1
    47   19   51 1
    48   20   21 1
    49   20   52 1
    50   20   53 1
    51   21   54 1
    52   21   55 1
    53   22   27 1
    54   22   23 1
    55   22   56 1
    56   23   24 1
    57   23   57 1
    58   23   58 1
    59   24   25 1
    60   24   59 1
    61   24   60 1
    62   25   26 1
    63   25   61 1
    64   25   62 1
    65   26   27 1
    66   26   63 1
    67   26   64 1
    68   27   65 1
    69   27   66 1
@<TRIPOS>MOLECULE
ZINC67332004
   67    69     0     0     0
SMALL
USER_CHARGES

@<TRIPOS>ATOM
      1 C1         -0.0187    1.5258    0.0104 C.3       1 <0>        -0.1546
      2 C2          0.0021   -0.0041    0.0020 C.3       1 <0>        -0.1116
      3 C3          0.7421   -0.5109    1.2415 C.3       1 <0>        -0.1394
      4 C4          0.7625   -2.0177    1.2333 C.2       1 <0>         0.5154
      5 O1          0.2370   -2.6263    0.3253 O.2       1 <0>        -0.5298
      6 N1          1.3648   -2.6890    2.2348 N.am      1 <0>        -0.6199
      7 C5          2.0004   -1.9659    3.3446 C.3       1 <0>         0.1012
      8 C6          3.4468   -2.4506    3.4849 C.3       1 <0>        -0.1350
      9 C7          3.4577   -3.9733    3.6387 C.3       1 <0>        -0.1098
     10 C8          2.8510   -4.6181    2.3904 C.3       1 <0>        -0.1228
     11 H1          3.4219   -4.3178    1.5118 H         1 <0>         0.1078
     12 C9          1.3930   -4.1580    2.2406 C.3       1 <0>         0.1301
     13 C10         2.8924   -6.1182    2.5286 C.2       1 <0>         0.5287
     14 O2          1.8623   -6.7580    2.5047 O.2       1 <0>        -0.5041
     15 N2          4.0740   -6.7488    2.6788 N.am      1 <0>        -0.7563
     16 C11         4.1142   -8.2071    2.8131 C.3       1 <0>         0.0974
     17 C12         5.5657   -8.6650    2.9692 C.3       1 <0>         0.0120
     18 H2          6.1199   -8.4587    2.0535 H         1 <0>         0.1473
     19 C13         5.6089  -10.1760    3.2798 C.3       1 <0>        -0.1326
     20 C14         6.7638  -10.2882    4.3096 C.3       1 <0>        -0.1384
     21 C15         6.5967   -8.9734    5.1116 C.3       1 <0>        -0.0155
     22 N3          6.1935   -7.9641    4.1043 N.4       1 <0>        -0.3959
     23 C16         7.3756   -7.2273    3.6376 C.3       1 <0>        -0.0105
     24 C17         7.9509   -6.4028    4.7910 C.3       1 <0>        -0.1140
     25 C18         6.9417   -5.3295    5.2036 C.3       1 <0>        -0.1295
     26 C19         7.5169   -4.5050    6.3570 C.3       1 <0>        -0.1185
     27 C20         8.8173   -3.8363    5.9069 C.3       1 <0>        -0.1260
     28 C21         9.8265   -4.9097    5.4943 C.3       1 <0>        -0.1225
     29 C22         9.2513   -5.7341    4.3409 C.3       1 <0>        -0.1109
     30 H3          1.0039    1.9031    0.0027 H         1 <0>         0.0546
     31 H4         -0.5459    1.8868   -0.8726 H         1 <0>         0.0611
     32 H5         -0.5289    1.8773    0.9072 H         1 <0>         0.0558
     33 H6         -1.0205   -0.3814    0.0098 H         1 <0>         0.0707
     34 H7          0.5123   -0.3556   -0.8948 H         1 <0>         0.0692
     35 H8          1.7647   -0.1336    1.2338 H         1 <0>         0.0939
     36 H9          0.2319   -0.1594    2.1383 H         1 <0>         0.0954
     37 H10         1.9922   -0.8961    3.1360 H         1 <0>         0.0944
     38 H11         1.4573   -2.1642    4.2686 H         1 <0>         0.0746
     39 H12         4.0121   -2.1708    2.5959 H         1 <0>         0.0734
     40 H13         3.9003   -1.9929    4.3641 H         1 <0>         0.0864
     41 H14         4.4840   -4.3184    3.7634 H         1 <0>         0.0630
     42 H15         2.8716   -4.2540    4.5138 H         1 <0>         0.0759
     43 H16         0.8013   -4.5315    3.0765 H         1 <0>         0.0787
     44 H17         0.9838   -4.5351    1.3033 H         1 <0>         0.1023
     45 H18         4.8978   -6.2371    2.6980 H         1 <0>         0.3944
     46 H19         3.5422   -8.5070    3.6912 H         1 <0>         0.0969
     47 H20         3.6820   -8.6659    1.9239 H         1 <0>         0.1171
     48 H21         4.6676  -10.5063    3.7189 H         1 <0>         0.1067
     49 H22         5.8376  -10.7480    2.3805 H         1 <0>         0.1190
     50 H23         6.6300  -11.1577    4.9532 H         1 <0>         0.1214
     51 H24         7.7316  -10.3199    3.8091 H         1 <0>         0.0994
     52 H25         5.8208   -9.0867    5.8687 H         1 <0>         0.1344
     53 H26         7.5415   -8.6888    5.5748 H         1 <0>         0.1384
     54 H27         8.1278   -7.9329    3.2849 H         1 <0>         0.1356
     55 H28         7.0907   -6.5622    2.8223 H         1 <0>         0.1264
     56 H29         8.1532   -7.0566    5.6393 H         1 <0>         0.0962
     57 H30         6.7393   -4.6757    4.3552 H         1 <0>         0.0786
     58 H31         6.0152   -5.8059    5.5242 H         1 <0>         0.0538
     59 H32         6.7979   -3.7403    6.6509 H         1 <0>         0.0737
     60 H33         7.7193   -5.1588    7.2053 H         1 <0>         0.0674
     61 H34         8.6150   -3.1825    5.0585 H         1 <0>         0.0667
     62 H35         9.2272   -3.2490    6.7286 H         1 <0>         0.0719
     63 H36        10.7530   -4.4333    5.1736 H         1 <0>         0.0749
     64 H37        10.0289   -5.5635    6.3426 H         1 <0>         0.0668
     65 H38         9.9703   -6.4988    4.0469 H         1 <0>         0.0743
     66 H39         9.0489   -5.0803    3.4925 H         1 <0>         0.0746
     67 H40         5.5330   -7.3202    4.5131 H         1 <0>         0.4197
@<TRIPOS>BOND
     1    1    2 1
     2    1   30 1
     3    1   31 1
     4    1   32 1
     5    2    3 1
     6    2   33 1
     7    2   34 1
     8    3    4 1
     9    3   35 1
    10    3   36 1
    11    4    5 2
    12    4    6 am
    13    6   12 1
    14    6    7 1
    15    7    8 1
    16    7   37 1
    17    7   38 1
    18    8    9 1
    19    8   39 1
    20    8   40 1
    21    9   10 1
    22    9   41 1
    23    9   42 1
    24   10   11 1
    25   10   12 1
    26   10   13 1
    27   12   43 1
    28   12   44 1
    29   13   14 2
    30   13   15 am
    31   15   16 1
    32   15   45 1
    33   16   17 1
    34   16   46 1
    35   16   47 1
    36   17   18 1
    37   17   22 1
    38   17   19 1
    39   19   20 1
    40   19   48 1
    41   19   49 1
    42   20   21 1
    43   20   50 1
    44   20   51 1
    45   21   22 1
    46   21   52 1
    47   21   53 1
    48   22   23 1
    49   22   67 1
    50   23   24 1
    51   23   54 1
    52   23   55 1
    53   24   29 1
    54   24   25 1
    55   24   56 1
    56   25   26 1
    57   25   57 1
    58   25   58 1
    59   26   27 1
    60   26   59 1
    61   26   60 1
    62   27   28 1
    63   27   61 1
    64   27   62 1
    65   28   29 1
    66   28   63 1
    67   28   64 1
    68   29   65 1
    69   29   66 1
@<TRIPOS>MOLECULE
ZINC11935880
   52    55     0     0     0
SMALL
USER_CHARGES
N-[[3-[(2-fluorophenyl)methyl]-1,2,4-oxadiazol-5-yl]methyl]-1-(1,4,5,6,7,8-hexahydrocyclohepta[d]pyrazol-3-yl)-N-methyl-methanamine
@<TRIPOS>ATOM
      1 C1          0.6154    5.1169   -2.0612 C.3       1 <0>        -0.0536
      2 C2          1.5667    4.2743   -0.0003 C.3       1 <0>         0.0939
      3 C3          0.6925    3.0468    0.0039 C.2       1 <0>         0.0055
      4 C4         -0.7049    3.0356    0.0123 C.2       1 <0>        -0.2185
      5 C5         -1.1110    1.7443    0.0161 C.2       1 <0>         0.1185
      6 N1         -0.0111    0.9658    0.0074 N.pl3     1 <0>        -0.4457
      7 H1          0.0025   -0.0341    0.0057 H         1 <0>         0.4586
      8 N2          1.1105    1.8063    0.0012 N.2       1 <0>        -0.2538
      9 C6         -2.5434    1.2751    0.0428 C.3       1 <0>        -0.0712
     10 C7         -3.3476    2.0485   -1.0059 C.3       1 <0>        -0.1128
     11 C8         -3.9054    3.3263   -0.3859 C.3       1 <0>        -0.1256
     12 C9         -2.9408    3.8839    0.6575 C.3       1 <0>        -0.1272
     13 C10        -1.6098    4.2420    0.0002 C.3       1 <0>        -0.0492
     14 C11         2.8770    5.7160   -1.4379 C.3       1 <0>         0.1110
     15 C12         3.3087    5.9254   -2.8666 C.2       1 <0>         0.0921
     16 N3          2.7831    6.7646   -3.7262 N.2       1 <0>        -0.4231
     17 C13         3.4859    6.6071   -4.8620 C.2       1 <0>         0.1869
     18 N4          4.3814    5.6916   -4.6416 N.2       1 <0>        -0.3339
     19 O1          4.2965    5.2871   -3.5012 O.3       1 <0>         0.1155
     20 C14         3.2708    7.3515   -6.1545 C.3       1 <0>         0.0065
     21 C15         2.2821    6.6001   -7.0084 C.ar      1 <0>        -0.1368
     22 C16         0.9608    7.0032   -7.0534 C.ar      1 <0>        -0.0747
     23 C17         0.0539    6.3145   -7.8369 C.ar      1 <0>        -0.1291
     24 C18         0.4674    5.2221   -8.5767 C.ar      1 <0>        -0.0794
     25 C19         1.7879    4.8175   -8.5336 C.ar      1 <0>        -0.1534
     26 C20         2.6983    5.5094   -7.7524 C.ar      1 <0>         0.1096
     27 F1          3.9907    5.1179   -7.7135 F         1 <0>        -0.1305
     28 H2          0.1956    5.9702   -1.5284 H         1 <0>         0.1355
     29 H3          0.8483    5.4071   -3.0857 H         1 <0>         0.1197
     30 H4         -0.1086    4.3021   -2.0700 H         1 <0>         0.1293
     31 H5          1.0555    5.0862    0.5171 H         1 <0>         0.1557
     32 H6          2.5053    4.0536    0.5081 H         1 <0>         0.1494
     33 H7         -2.5816    0.2093   -0.1824 H         1 <0>         0.0824
     34 H8         -2.9668    1.4543    1.0311 H         1 <0>         0.1041
     35 H9         -2.6991    2.3049   -1.8437 H         1 <0>         0.0643
     36 H10        -4.1706    1.4286   -1.3616 H         1 <0>         0.0786
     37 H11        -4.0563    4.0693   -1.1690 H         1 <0>         0.0684
     38 H12        -4.8615    3.1072    0.0895 H         1 <0>         0.0704
     39 H13        -3.3722    4.7772    1.1093 H         1 <0>         0.0733
     40 H14        -2.7690    3.1341    1.4298 H         1 <0>         0.0713
     41 H15        -1.1352    5.0585    0.5443 H         1 <0>         0.0730
     42 H16        -1.7940    4.5486   -1.0295 H         1 <0>         0.0734
     43 H17         2.4745    6.6474   -1.0398 H         1 <0>         0.1773
     44 H18         3.7348    5.4063   -0.8409 H         1 <0>         0.1691
     45 H19         2.8826    8.3472   -5.9400 H         1 <0>         0.1203
     46 H20         4.2184    7.4377   -6.6862 H         1 <0>         0.1131
     47 H21         0.6367    7.8564   -6.4760 H         1 <0>         0.1377
     48 H22        -0.9783    6.6302   -7.8715 H         1 <0>         0.1360
     49 H23        -0.2420    4.6849   -9.1888 H         1 <0>         0.1384
     50 H24         2.1107    3.9644   -9.1119 H         1 <0>         0.1405
     51 N5          1.8528    4.6510   -1.4006 N.4       1 <0>        -0.3961
     52 H25         2.2087    3.8283   -1.9012 H         1 <0>         0.4353
@<TRIPOS>BOND
     1    1   28 1
     2    1   29 1
     3    1   30 1
     4    1   51 1
     5    2    3 1
     6    2   31 1
     7    2   32 1
     8    2   51 1
     9    3    8 2
    10    3    4 1
    11    4   13 1
    12    4    5 2
    13    5    6 1
    14    5    9 1
    15    6    7 1
    16    6    8 1
    17    9   10 1
    18    9   33 1
    19    9   34 1
    20   10   11 1
    21   10   35 1
    22   10   36 1
    23   11   12 1
    24   11   37 1
    25   11   38 1
    26   12   13 1
    27   12   39 1
    28   12   40 1
    29   13   41 1
    30   13   42 1
    31   14   15 1
    32   14   43 1
    33   14   44 1
    34   14   51 1
    35   15   19 1
    36   15   16 2
    37   16   17 1
    38   17   18 2
    39   17   20 1
    40   18   19 1
    41   20   21 1
    42   20   45 1
    43   20   46 1
    44   21   26 ar
    45   21   22 ar
    46   22   23 ar
    47   22   47 1
    48   23   24 ar
    49   23   48 1
    50   24   25 ar
    51   24   49 1
    52   25   26 ar
    53   25   50 1
    54   26   27 1
    55   51   52 1
@<TRIPOS>MOLECULE
ZINC43619390
   57    60     0     0     0
SMALL
USER_CHARGES

@<TRIPOS>ATOM
      1 C1         -0.0167    1.3780    0.0096 C.ar      1 <0>        -0.1336
      2 C2          1.1706    2.0866    0.0021 C.ar      1 <0>        -0.0705
      3 C3          2.3773    1.4137   -0.0131 C.ar      1 <0>        -0.1572
      4 C4          2.3974    0.0291   -0.0207 C.ar      1 <0>         0.1375
      5 C5          1.2080   -0.6793   -0.0132 C.ar      1 <0>        -0.1638
      6 C6          0.0021   -0.0041    0.0020 C.ar      1 <0>        -0.0681
      7 C7          1.2281   -2.1862   -0.0220 C.3       1 <0>         0.1647
      8 N1          1.3684   -2.6807    1.3499 N.pl3     1 <0>        -0.3524
      9 C8          0.5538   -3.5528    1.9771 C.2       1 <0>         0.1005
     10 C9          1.0575   -3.7309    3.2342 C.2       1 <0>        -0.1150
     11 N2          2.1615   -2.9751    3.3613 N.2       1 <0>        -0.2106
     12 N3          2.3791   -2.3428    2.2609 N.2       1 <0>        -0.0436
     13 C10         0.4859   -4.6047    4.2764 C.2       1 <0>         0.6134
     14 O1         -0.5221   -5.2449    4.0474 O.2       1 <0>        -0.5334
     15 N4          1.0811   -4.6933    5.4824 N.am      1 <0>        -0.7222
     16 C11         0.5135   -5.5610    6.5173 C.3       1 <0>         0.1203
     17 C12         1.3742   -5.4794    7.7797 C.3       1 <0>        -0.1307
     18 C13         0.7814   -6.3856    8.8606 C.3       1 <0>        -0.0988
     19 H1          0.6786   -7.3976    8.4687 H         1 <0>         0.0987
     20 C14        -0.5943   -5.8565    9.2698 C.3       1 <0>        -0.1383
     21 C15        -1.1439   -6.7387   10.3957 C.3       1 <0>        -0.1448
     22 C16        -0.1566   -6.7220   11.5622 C.3       1 <0>        -0.0080
     23 N5          1.1461   -7.2510   11.1313 N.4       1 <0>        -0.3773
     24 C17         1.7120   -6.4026   10.0779 C.3       1 <0>         0.0344
     25 H2          1.8369   -5.3875   10.4547 H         1 <0>         0.1363
     26 C18         3.0697   -6.9560    9.6323 C.3       1 <0>        -0.1449
     27 C19         4.0241   -7.0094   10.8265 C.3       1 <0>        -0.1377
     28 C20         3.3893   -7.8707   11.9234 C.3       1 <0>        -0.1464
     29 C21         2.0376   -7.2715   12.3005 C.3       1 <0>        -0.0067
     30 F1          3.5766   -0.6299   -0.0360 F         1 <0>        -0.1267
     31 H3         -0.9594    1.9048    0.0260 H         1 <0>         0.1358
     32 H4          1.1547    3.1665    0.0077 H         1 <0>         0.1388
     33 H5          3.3046    1.9675   -0.0193 H         1 <0>         0.1420
     34 H6         -0.9259   -0.5565    0.0083 H         1 <0>         0.1350
     35 H7          0.2975   -2.5595   -0.4494 H         1 <0>         0.1238
     36 H8          2.0689   -2.5348   -0.6216 H         1 <0>         0.1139
     37 H9         -0.3279   -4.0207    1.5647 H         1 <0>         0.2067
     38 H10         1.8852   -4.1825    5.6651 H         1 <0>         0.4107
     39 H11        -0.5011   -5.2361    6.7477 H         1 <0>         0.0747
     40 H12         0.4928   -6.5898    6.1577 H         1 <0>         0.0732
     41 H13         2.3888   -5.8043    7.5494 H         1 <0>         0.0868
     42 H14         1.3949   -4.4506    8.1393 H         1 <0>         0.0842
     43 H15        -0.5010   -4.8293    9.6224 H         1 <0>         0.0842
     44 H16        -1.2691   -5.8923    8.4145 H         1 <0>         0.0993
     45 H17        -2.1071   -6.3504   10.7268 H         1 <0>         0.1138
     46 H18        -1.2645   -7.7598   10.0338 H         1 <0>         0.0886
     47 H19        -0.0319   -5.6983   11.9153 H         1 <0>         0.1272
     48 H20        -0.5457   -7.3369   12.3737 H         1 <0>         0.1302
     49 H21         2.9372   -7.9600    9.2291 H         1 <0>         0.0884
     50 H22         3.4893   -6.3094    8.8616 H         1 <0>         0.1136
     51 H23         4.9719   -7.4505   10.5178 H         1 <0>         0.0950
     52 H24         4.1932   -6.0013   11.2050 H         1 <0>         0.0817
     53 H25         3.2470   -8.8863   11.5539 H         1 <0>         0.0873
     54 H26         4.0395   -7.8860   12.7981 H         1 <0>         0.1124
     55 H27         2.1841   -6.2533   12.6610 H         1 <0>         0.1269
     56 H28         1.5840   -7.8704   13.0902 H         1 <0>         0.1302
     57 H29         1.0286   -8.1900   10.7813 H         1 <0>         0.4203
@<TRIPOS>BOND
     1    1    6 ar
     2    1    2 ar
     3    1   31 1
     4    2    3 ar
     5    2   32 1
     6    3    4 ar
     7    3   33 1
     8    4    5 ar
     9    4   30 1
    10    5    6 ar
    11    5    7 1
    12    6   34 1
    13    7    8 1
    14    7   35 1
    15    7   36 1
    16    8   12 1
    17    8    9 1
    18    9   10 2
    19    9   37 1
    20   10   11 1
    21   10   13 1
    22   11   12 2
    23   13   14 2
    24   13   15 am
    25   15   16 1
    26   15   38 1
    27   16   17 1
    28   16   39 1
    29   16   40 1
    30   17   18 1
    31   17   41 1
    32   17   42 1
    33   18   19 1
    34   18   24 1
    35   18   20 1
    36   20   21 1
    37   20   43 1
    38   20   44 1
    39   21   22 1
    40   21   45 1
    41   21   46 1
    42   22   23 1
    43   22   47 1
    44   22   48 1
    45   23   29 1
    46   23   24 1
    47   23   57 1
    48   24   25 1
    49   24   26 1
    50   26   27 1
    51   26   49 1
    52   26   50 1
    53   27   28 1
    54   27   51 1
    55   27   52 1
    56   28   29 1
    57   28   53 1
    58   28   54 1
    59   29   55 1
    60   29   56 1
@<TRIPOS>MOLECULE
ZINC59890932
   53    54     0     0     0
SMALL
USER_CHARGES

@<TRIPOS>ATOM
      1 C1         -1.8123    1.5733   -0.8468 C.3       1 <0>        -0.1530
      2 C2         -1.5409    0.0680   -0.8821 C.3       1 <0>        -0.0893
      3 H1         -2.4489   -0.4713   -0.6122 H         1 <0>         0.0848
      4 C3         -1.1059   -0.3389   -2.2914 C.3       1 <0>        -0.1257
      5 C4         -0.8346   -1.8442   -2.3267 C.3       1 <0>        -0.1201
      6 C5          0.2763   -2.1857   -1.3316 C.3       1 <0>        -0.1341
      7 C6         -0.1587   -1.7788    0.0777 C.3       1 <0>         0.0461
      8 C7         -0.4300   -0.2735    0.1130 C.3       1 <0>        -0.1281
      9 C8         -1.4332   -2.5358    0.4565 C.3       1 <0>         0.1005
     10 N1         -1.1341   -3.9646    0.5799 N.am      1 <0>        -0.7423
     11 C9         -2.1281   -4.8431    0.8175 C.2       1 <0>         0.5692
     12 O1         -3.2728   -4.4500    0.9294 O.2       1 <0>        -0.4630
     13 C10        -1.8263   -6.2853    0.9420 C.ar      1 <0>        -0.0547
     14 C11        -1.1523   -6.9499   -0.0824 C.ar      1 <0>        -0.0787
     15 C12        -0.8723   -8.3027    0.0420 C.ar      1 <0>        -0.0441
     16 C13        -1.2635   -8.9912    1.1854 C.ar      1 <0>        -0.1160
     17 C14        -1.9312   -8.3320    2.1998 C.ar      1 <0>        -0.0243
     18 C15        -2.2097   -6.9846    2.0876 C.ar      1 <0>        -0.0263
     19 N2         -2.9202   -6.2824    3.1800 N.pl3     1 <0>         0.0296
     20 O2         -3.3540   -6.9081    4.1191 O.2       1 <0>        -0.1478
     21 O3         -3.0667   -5.0833    3.1330 O.3       1 <0>        -0.1380
     22 S1         -0.0218   -9.1488   -1.2485 S.3       1 <0>        -0.0587
     23 C16         0.1097  -10.8538   -0.6432 C.3       1 <0>        -0.1579
     24 N3          0.9079   -2.1066    1.0331 N.4       1 <0>        -0.3836
     25 C17         2.1088   -1.3230    0.7142 C.3       1 <0>        -0.0569
     26 C18         0.4610   -1.7854    2.3951 C.3       1 <0>        -0.0614
     27 H2         -0.9043    2.1126   -1.1167 H         1 <0>         0.0602
     28 H3         -2.6037    1.8166   -1.5557 H         1 <0>         0.0689
     29 H4         -2.1222    1.8632    0.1572 H         1 <0>         0.0619
     30 H5         -1.8973   -0.0956   -3.0004 H         1 <0>         0.0821
     31 H6         -0.1980    0.2004   -2.5613 H         1 <0>         0.0724
     32 H7         -1.7425   -2.3835   -2.0568 H         1 <0>         0.0767
     33 H8         -0.5247   -2.1341   -3.3308 H         1 <0>         0.0880
     34 H9          0.4696   -3.2581   -1.3568 H         1 <0>         0.0843
     35 H10         1.1843   -1.6464   -1.6015 H         1 <0>         0.0948
     36 H11         0.4779    0.2658   -0.1569 H         1 <0>         0.0968
     37 H12        -0.7399    0.0164    1.1170 H         1 <0>         0.0933
     38 H13        -1.8098   -2.1600    1.4079 H         1 <0>         0.1027
     39 H14        -2.1871   -2.3878   -0.3166 H         1 <0>         0.1233
     40 H15        -0.2206   -4.2784    0.4906 H         1 <0>         0.3914
     41 H16        -0.8499   -6.4133   -0.9694 H         1 <0>         0.1554
     42 H17        -1.0451  -10.0446    1.2805 H         1 <0>         0.1559
     43 H18        -2.2325   -8.8718    3.0853 H         1 <0>         0.1679
     44 H19         0.6287  -11.4631   -1.3831 H         1 <0>         0.1240
     45 H20         0.6680  -10.8650    0.2929 H         1 <0>         0.0942
     46 H21        -0.8887  -11.2578   -0.4756 H         1 <0>         0.0953
     47 H22         1.9038   -0.2640    0.8706 H         1 <0>         0.1282
     48 H23         2.9283   -1.6340    1.3623 H         1 <0>         0.1277
     49 H24         2.3856   -1.4897   -0.3268 H         1 <0>         0.1265
     50 H25        -0.4301   -2.3668    2.6317 H         1 <0>         0.1277
     51 H26         1.2524   -2.0287    3.1041 H         1 <0>         0.1287
     52 H27         0.2291   -0.7223    2.4602 H         1 <0>         0.1297
     53 H28         1.1226   -3.0907    0.9729 H         1 <0>         0.4161
@<TRIPOS>BOND
     1    1    2 1
     2    1   27 1
     3    1   28 1
     4    1   29 1
     5    2    3 1
     6    2    8 1
     7    2    4 1
     8    4    5 1
     9    4   30 1
    10    4   31 1
    11    5    6 1
    12    5   32 1
    13    5   33 1
    14    6    7 1
    15    6   34 1
    16    6   35 1
    17    7    8 1
    18    7    9 1
    19    7   24 1
    20    8   36 1
    21    8   37 1
    22    9   10 1
    23    9   38 1
    24    9   39 1
    25   10   11 am
    26   10   40 1
    27   11   12 2
    28   11   13 1
    29   13   18 ar
    30   13   14 ar
    31   14   15 ar
    32   14   41 1
    33   15   16 ar
    34   15   22 1
    35   16   17 ar
    36   16   42 1
    37   17   18 ar
    38   17   43 1
    39   18   19 1
    40   19   20 2
    41   19   21 1
    42   22   23 1
    43   23   44 1
    44   23   45 1
    45   23   46 1
    46   24   25 1
    47   24   26 1
    48   24   53 1
    49   25   47 1
    50   25   48 1
    51   25   49 1
    52   26   50 1
    53   26   51 1
    54   26   52 1
@<TRIPOS>MOLECULE
ZINC63834421
   57    59     0     0     0
SMALL
USER_CHARGES

@<TRIPOS>ATOM
      1 C1         -0.0184    1.5028    0.0103 C.3       1 <0>        -0.0885
      2 C2          0.0021   -0.0041    0.0020 C.2       1 <0>         0.1271
      3 C3          0.0080   -0.8237   -1.1409 C.2       1 <0>        -0.2680
      4 C4          0.0273   -2.1079   -0.7353 C.2       1 <0>         0.1117
      5 O1          0.0335   -2.1190    0.6064 O.3       1 <0>        -0.0768
      6 N1          0.0230   -0.7748    1.0524 N.2       1 <0>        -0.3154
      7 C5          0.0393   -3.3197   -1.6311 C.3       1 <0>        -0.0939
      8 C6         -0.0053   -0.3478   -2.5707 C.3       1 <0>         0.1294
      9 O2          1.3376   -0.1787   -3.0290 O.3       1 <0>        -0.2757
     10 C7          1.5033    0.2484   -4.3058 C.ar      1 <0>         0.1922
     11 C8          0.3981    0.5064   -5.1032 C.ar      1 <0>        -0.2195
     12 C9          0.5684    0.9405   -6.4026 C.ar      1 <0>        -0.0418
     13 C10         1.8408    1.1219   -6.9200 C.ar      1 <0>        -0.1659
     14 C11         2.9499    0.8709   -6.1419 C.ar      1 <0>        -0.0481
     15 C12         2.7920    0.4366   -4.8234 C.ar      1 <0>        -0.1845
     16 C13         3.9751    0.1713   -3.9829 C.2       1 <0>         0.5655
     17 O3          3.8337   -0.2117   -2.8376 O.2       1 <0>        -0.5066
     18 N2          5.2127    0.3536   -4.4845 N.am      1 <0>        -0.7384
     19 C14         6.3876    0.0902   -3.6499 C.3       1 <0>         0.1255
     20 C15         7.6581    0.3735   -4.4539 C.3       1 <0>        -0.1214
     21 C16         7.8339   -0.6824   -5.5693 C.3       1 <0>        -0.1454
     22 C17         9.3617   -0.9398   -5.5651 C.3       1 <0>        -0.0039
     23 N3          9.7130   -0.8768   -4.1233 N.4       1 <0>        -0.3931
     24 C18         8.9019    0.2234   -3.5583 C.3       1 <0>        -0.0018
     25 C19        11.1438   -0.5852   -3.9628 C.3       1 <0>         0.0278
     26 C20        11.4808   -0.4890   -2.4734 C.3       1 <0>        -0.1843
     27 C21        11.9674   -1.7058   -4.6006 C.3       1 <0>        -0.1830
     28 H1          1.0042    1.8801    0.0026 H         1 <0>         0.0919
     29 H2         -0.5455    1.8639   -0.8728 H         1 <0>         0.0858
     30 H3         -0.5286    1.8543    0.9071 H         1 <0>         0.0865
     31 H4          1.0697   -3.5980   -1.8521 H         1 <0>         0.0990
     32 H5         -0.4610   -4.1477   -1.1290 H         1 <0>         0.0926
     33 H6         -0.4822   -3.0898   -2.5603 H         1 <0>         0.0949
     34 H7         -0.5120   -1.0846   -3.1941 H         1 <0>         0.0774
     35 H8         -0.5327    0.6041   -2.6319 H         1 <0>         0.0788
     36 H9         -0.5970    0.3670   -4.7072 H         1 <0>         0.1385
     37 H10        -0.2954    1.1397   -7.0196 H         1 <0>         0.1350
     38 H11         1.9639    1.4611   -7.9379 H         1 <0>         0.1332
     39 H12         3.9398    1.0132   -6.5494 H         1 <0>         0.1277
     40 H13         5.3255    0.6591   -5.3982 H         1 <0>         0.4001
     41 H14         6.3616    0.7357   -2.7720 H         1 <0>         0.0808
     42 H15         6.3824   -0.9530   -3.3342 H         1 <0>         0.0749
     43 H16         7.6188    1.3752   -4.8819 H         1 <0>         0.1198
     44 H17         7.2885   -1.5944   -5.3266 H         1 <0>         0.1027
     45 H18         7.5125   -0.2840   -6.5316 H         1 <0>         0.1186
     46 H19         9.5870   -1.9250   -5.9732 H         1 <0>         0.1366
     47 H20         9.8843   -0.1625   -6.1227 H         1 <0>         0.1349
     48 H21         9.4770    1.1492   -3.5633 H         1 <0>         0.1369
     49 H22         8.5991   -0.0233   -2.5407 H         1 <0>         0.1359
     50 H23        11.3787    0.3610   -4.4503 H         1 <0>         0.1358
     51 H24        12.5424   -0.2726   -2.3544 H         1 <0>         0.1052
     52 H25        10.8941    0.3094   -2.0190 H         1 <0>         0.0807
     53 H26        11.2459   -1.4351   -1.9859 H         1 <0>         0.0809
     54 H27        11.7273   -1.7744   -5.6616 H         1 <0>         0.0804
     55 H28        13.0290   -1.4895   -4.4815 H         1 <0>         0.1052
     56 H29        11.7325   -2.6520   -4.1131 H         1 <0>         0.0805
     57 H30         9.4812   -1.7481   -3.6703 H         1 <0>         0.4257
@<TRIPOS>BOND
     1    1    2 1
     2    1   28 1
     3    1   29 1
     4    1   30 1
     5    2    6 2
     6    2    3 1
     7    3    4 2
     8    3    8 1
     9    4    5 1
    10    4    7 1
    11    5    6 1
    12    7   31 1
    13    7   32 1
    14    7   33 1
    15    8    9 1
    16    8   34 1
    17    8   35 1
    18    9   10 1
    19   10   15 ar
    20   10   11 ar
    21   11   12 ar
    22   11   36 1
    23   12   13 ar
    24   12   37 1
    25   13   14 ar
    26   13   38 1
    27   14   15 ar
    28   14   39 1
    29   15   16 1
    30   16   17 2
    31   16   18 am
    32   18   19 1
    33   18   40 1
    34   19   20 1
    35   19   41 1
    36   19   42 1
    37   20   24 1
    38   20   21 1
    39   20   43 1
    40   21   22 1
    41   21   44 1
    42   21   45 1
    43   22   23 1
    44   22   46 1
    45   22   47 1
    46   23   24 1
    47   23   25 1
    48   23   57 1
    49   24   48 1
    50   24   49 1
    51   25   26 1
    52   25   27 1
    53   25   50 1
    54   26   51 1
    55   26   52 1
    56   26   53 1
    57   27   54 1
    58   27   55 1
    59   27   56 1
@<TRIPOS>MOLECULE
ZINC67203135
   64    67     0     0     0
SMALL
USER_CHARGES

@<TRIPOS>ATOM
      1 C1          1.7605    1.7988    0.9933 C.3       1 <0>        -0.1263
      2 C2          2.1230    0.3227    1.1686 C.3       1 <0>        -0.1196
      3 C3          2.9195   -0.1547   -0.0474 C.3       1 <0>        -0.1300
      4 C4          2.0732    0.0161   -1.3105 C.3       1 <0>        -0.1142
      5 C5          1.7107    1.4921   -1.4858 C.3       1 <0>        -0.1107
      6 C6          0.9142    1.9696   -0.2699 C.3       1 <0>        -0.1223
      7 C7          2.8697   -0.4613   -2.5264 C.3       1 <0>        -0.0107
      8 N1          3.1022   -1.9081   -2.4223 N.4       1 <0>        -0.3959
      9 C8          1.8177   -2.6288   -2.5493 C.3       1 <0>        -0.0165
     10 C9          1.7339   -3.0276   -4.0438 C.3       1 <0>        -0.1380
     11 C10         3.2137   -3.3690   -4.3605 C.3       1 <0>        -0.1329
     12 C11         3.9961   -2.3465   -3.5097 C.3       1 <0>         0.0127
     13 H1          4.2791   -1.4920   -4.1244 H         1 <0>         0.1488
     14 C12         5.2457   -3.0058   -2.9225 C.3       1 <0>         0.0991
     15 N2          5.8876   -2.0844   -1.9816 N.am      1 <0>        -0.7529
     16 C13         7.0131   -2.4536   -1.3386 C.2       1 <0>         0.5086
     17 O1          7.4945   -3.5485   -1.5390 O.2       1 <0>        -0.4987
     18 C14         7.6733   -1.5058   -0.3708 C.3       1 <0>         0.0784
     19 N3          8.8698   -2.1370    0.1915 N.am      1 <0>        -0.5692
     20 C15         8.8475   -2.8834    1.3094 C.2       1 <0>         0.5355
     21 O2          7.8565   -3.2523    1.9021 O.2       1 <0>        -0.4707
     22 C16        10.2935   -3.1847    1.6992 C.3       1 <0>        -0.1038
     23 H2         10.3955   -4.2219    2.0185 H         1 <0>         0.1272
     24 C17        10.6795   -2.2445    2.8246 C.3       1 <0>        -0.1063
     25 C18        12.1791   -1.9890    2.8837 C.3       1 <0>        -0.1192
     26 C19        12.6207   -1.3798    1.5483 C.3       1 <0>        -0.1228
     27 C20        12.4272   -2.4293    0.4599 C.3       1 <0>        -0.1062
     28 C21        11.0159   -2.9609    0.3780 C.3       1 <0>        -0.1116
     29 H3         11.0195   -3.9046   -0.1675 H         1 <0>         0.1218
     30 C22        10.0895   -2.0264   -0.3681 C.2       1 <0>         0.5386
     31 O3         10.3906   -1.3086   -1.2974 O.2       1 <0>        -0.4663
     32 H4          1.1930    2.1389    1.8596 H         1 <0>         0.0720
     33 H5          2.6725    2.3886    0.9020 H         1 <0>         0.0667
     34 H6          2.7259    0.2011    2.0685 H         1 <0>         0.0739
     35 H7          1.2109   -0.2671    1.2599 H         1 <0>         0.0677
     36 H8          3.8316    0.4351   -0.1386 H         1 <0>         0.0784
     37 H9          3.1778   -1.2062    0.0775 H         1 <0>         0.0541
     38 H10         1.1611   -0.5737   -1.2192 H         1 <0>         0.0962
     39 H11         2.6228    2.0819   -1.5771 H         1 <0>         0.0748
     40 H12         1.1078    1.6138   -2.3857 H         1 <0>         0.0744
     41 H13         0.0021    1.3798   -0.1786 H         1 <0>         0.0668
     42 H14         0.6559    3.0211   -0.3947 H         1 <0>         0.0750
     43 H15         2.3075   -0.2482   -3.4356 H         1 <0>         0.1362
     44 H16         3.8269    0.0589   -2.5609 H         1 <0>         0.1271
     45 H17         1.8174   -3.5180   -1.9187 H         1 <0>         0.1344
     46 H18         0.9874   -1.9743   -2.2840 H         1 <0>         0.1389
     47 H19         1.0942   -3.8995   -4.1800 H         1 <0>         0.1214
     48 H20         1.3872   -2.1921   -4.6520 H         1 <0>         0.0998
     49 H21         3.4488   -4.3876   -4.0516 H         1 <0>         0.1064
     50 H22         3.4232   -3.2287   -5.4209 H         1 <0>         0.1193
     51 H23         4.9629   -3.9198   -2.4002 H         1 <0>         0.0979
     52 H24         5.9411   -3.2470   -3.7264 H         1 <0>         0.1177
     53 H25         5.5025   -1.2087   -1.8213 H         1 <0>         0.3965
     54 H26         7.9561   -0.5918   -0.8930 H         1 <0>         0.1302
     55 H27         6.9779   -1.2646    0.4332 H         1 <0>         0.1253
     56 H28        10.1655   -1.2940    2.6817 H         1 <0>         0.0623
     57 H29        10.3582   -2.6778    3.7717 H         1 <0>         0.0835
     58 H30        12.4008   -1.2948    3.6943 H         1 <0>         0.0764
     59 H31        12.7047   -2.9296    3.0489 H         1 <0>         0.0746
     60 H32        12.0134   -0.5025    1.3256 H         1 <0>         0.0620
     61 H33        13.6717   -1.0961    1.6031 H         1 <0>         0.0789
     62 H34        12.6943   -1.9910   -0.5017 H         1 <0>         0.0831
     63 H35        13.0946   -3.2679    0.6582 H         1 <0>         0.0824
     64 H36         3.5225   -2.1218   -1.5302 H         1 <0>         0.4201
@<TRIPOS>BOND
     1    1    6 1
     2    1    2 1
     3    1   32 1
     4    1   33 1
     5    2    3 1
     6    2   34 1
     7    2   35 1
     8    3    4 1
     9    3   36 1
    10    3   37 1
    11    4    5 1
    12    4    7 1
    13    4   38 1
    14    5    6 1
    15    5   39 1
    16    5   40 1
    17    6   41 1
    18    6   42 1
    19    7    8 1
    20    7   43 1
    21    7   44 1
    22    8   12 1
    23    8    9 1
    24    8   64 1
    25    9   10 1
    26    9   45 1
    27    9   46 1
    28   10   11 1
    29   10   47 1
    30   10   48 1
    31   11   12 1
    32   11   49 1
    33   11   50 1
    34   12   13 1
    35   12   14 1
    36   14   15 1
    37   14   51 1
    38   14   52 1
    39   15   16 am
    40   15   53 1
    41   16   17 2
    42   16   18 1
    43   18   19 1
    44   18   54 1
    45   18   55 1
    46   19   30 am
    47   19   20 am
    48   20   21 2
    49   20   22 1
    50   22   23 1
    51   22   28 1
    52   22   24 1
    53   24   25 1
    54   24   56 1
    55   24   57 1
    56   25   26 1
    57   25   58 1
    58   25   59 1
    59   26   27 1
    60   26   60 1
    61   26   61 1
    62   27   28 1
    63   27   62 1
    64   27   63 1
    65   28   29 1
    66   28   30 1
    67   30   31 2
@<TRIPOS>MOLECULE
ZINC00227364
   45    47     0     0     0
SMALL
USER_CHARGES
2-amino-7-dimethylamino-4-(4-ethylphenyl)-4H-chromene-3-carbonitrile
@<TRIPOS>ATOM
      1 C1          1.3094   -4.7644   -0.7574 C.3       1 <0>        -0.1462
      2 C2          0.0603   -4.2753   -0.0216 C.3       1 <0>        -0.0864
      3 C3          0.0399   -2.7685   -0.0134 C.ar      1 <0>        -0.0836
      4 C4         -0.5778   -2.0799   -1.0406 C.ar      1 <0>        -0.1164
      5 C5         -0.5969   -0.6978   -1.0328 C.ar      1 <0>        -0.1109
      6 C6          0.0021   -0.0041    0.0020 C.ar      1 <0>        -0.0754
      7 C7          0.6247   -0.6925    1.0263 C.ar      1 <0>        -0.0967
      8 C8          0.6393   -2.0748    1.0212 C.ar      1 <0>        -0.1171
      9 C9         -0.0184    1.5028    0.0103 C.3       1 <0>         0.0910
     10 H1         -0.5411    1.8616   -0.8763 H         1 <0>         0.0927
     11 C10         1.3955    2.0209   -0.0004 C.ar      1 <0>        -0.1771
     12 C11         2.1197    1.9974   -1.1796 C.ar      1 <0>        -0.0279
     13 C12         3.4169    2.4682   -1.2093 C.ar      1 <0>        -0.2040
     14 C13         4.0006    2.9682   -0.0514 C.ar      1 <0>         0.2443
     15 C14         3.2770    2.9925    1.1316 C.ar      1 <0>        -0.2070
     16 C15         1.9723    2.5179    1.1581 C.ar      1 <0>         0.1635
     17 O1          1.2783    2.5489    2.3226 O.3       1 <0>        -0.2466
     18 C16        -0.0628    2.4711    2.3056 C.2       1 <0>         0.4396
     19 C17        -0.7388    1.9841    1.2382 C.2       1 <0>        -0.2753
     20 C18        -2.1691    1.9273    1.2799 C.1       1 <0>         0.2737
     21 N1         -3.3037    1.8822    1.3130 N.1       1 <0>        -0.4489
     22 N2         -0.7685    2.8975    3.4029 N.pl3     1 <0>        -0.8326
     23 N3          5.3128    3.4457   -0.0791 N.pl3     1 <0>        -0.6329
     24 C19         6.0756    3.4198   -1.3296 C.3       1 <0>         0.0909
     25 C20         5.9266    3.9725    1.1424 C.3       1 <0>         0.0889
     26 H2          1.3241   -5.8543   -0.7634 H         1 <0>         0.0572
     27 H3          1.2947   -4.3956   -1.7831 H         1 <0>         0.0555
     28 H4          2.1992   -4.3918   -0.2501 H         1 <0>         0.0552
     29 H5          0.0750   -4.6441    1.0040 H         1 <0>         0.0702
     30 H6         -0.8296   -4.6479   -0.5290 H         1 <0>         0.0705
     31 H7         -1.0458   -2.6219   -1.8491 H         1 <0>         0.1198
     32 H8         -1.0796   -0.1598   -1.8354 H         1 <0>         0.1205
     33 H9          1.0966   -0.1505    1.8326 H         1 <0>         0.1141
     34 H10         1.1222   -2.6127    1.8236 H         1 <0>         0.1184
     35 H11         1.6677    1.6094   -2.0805 H         1 <0>         0.1319
     36 H12         3.9779    2.4482   -2.1320 H         1 <0>         0.1304
     37 H13         3.7285    3.3809    2.0325 H         1 <0>         0.1362
     38 H14        -0.2986    3.2487    4.1754 H         1 <0>         0.4104
     39 H15        -1.7373    2.8477    3.4059 H         1 <0>         0.4249
     40 H16         5.9180    4.3528   -1.8707 H         1 <0>         0.0519
     41 H17         7.1361    3.3041   -1.1060 H         1 <0>         0.0694
     42 H18         5.7401    2.5832   -1.9425 H         1 <0>         0.0716
     43 H19         6.4255    3.1638    1.6763 H         1 <0>         0.0519
     44 H20         6.6557    4.7395    0.8811 H         1 <0>         0.0696
     45 H21         5.1551    4.4063    1.7787 H         1 <0>         0.0704
@<TRIPOS>BOND
     1    1    2 1
     2    1   26 1
     3    1   27 1
     4    1   28 1
     5    2    3 1
     6    2   29 1
     7    2   30 1
     8    3    8 ar
     9    3    4 ar
    10    4    5 ar
    11    4   31 1
    12    5    6 ar
    13    5   32 1
    14    6    7 ar
    15    6    9 1
    16    7    8 ar
    17    7   33 1
    18    8   34 1
    19    9   10 1
    20    9   19 1
    21    9   11 1
    22   11   16 ar
    23   11   12 ar
    24   12   13 ar
    25   12   35 1
    26   13   14 ar
    27   13   36 1
    28   14   15 ar
    29   14   23 1
    30   15   16 ar
    31   15   37 1
    32   16   17 1
    33   17   18 1
    34   18   19 2
    35   18   22 1
    36   19   20 1
    37   20   21 3
    38   22   38 1
    39   22   39 1
    40   23   24 1
    41   23   25 1
    42   24   40 1
    43   24   41 1
    44   24   42 1
    45   25   43 1
    46   25   44 1
    47   25   45 1
@<TRIPOS>MOLECULE
ZINC04631759
   42    44     0     0     0
SMALL
USER_CHARGES

@<TRIPOS>ATOM
      1 C1         -0.1587    0.9669   -0.5296 C.3       1 <0>        -0.1454
      2 C2         -0.1113   -0.5421   -0.2815 C.3       1 <0>        -0.0624
      3 H1          0.3807   -1.0384   -1.1180 H         1 <0>         0.0820
      4 C3         -1.5368   -1.0874   -0.1189 C.3       1 <0>        -0.1141
      5 C4         -2.2025   -0.3543    1.0439 C.3       1 <0>        -0.1144
      6 C5         -1.4385   -0.5343    2.3347 C.3       1 <0>        -0.0324
      7 H2         -1.4955    0.4050    2.8848 H         1 <0>         0.0845
      8 C6         -2.0561   -1.6205    3.2174 C.3       1 <0>        -0.0241
      9 H3         -1.8849   -2.5981    2.7666 H         1 <0>         0.1237
     10 C7         -1.3994   -1.5710    4.5973 C.3       1 <0>         0.2111
     11 C8          0.0963   -1.5805    4.4985 C.2       1 <0>         0.2394
     12 C9          0.7757   -1.2340    3.3765 C.2       1 <0>        -0.1246
     13 C10         0.0134   -0.8662    2.1581 C.2       1 <0>        -0.0595
     14 C11         0.6394   -0.8263    0.9936 C.2       1 <0>        -0.1247
     15 C12         2.2076   -1.2457    3.3656 C.1       1 <0>         0.2623
     16 N1          3.3436   -1.2549    3.3569 N.1       1 <0>        -0.4234
     17 N2          0.8143   -1.9582    5.5982 N.pl3     1 <0>        -0.8412
     18 C13        -1.8273   -0.3442    5.2892 C.1       1 <0>         0.2012
     19 N3         -2.1575    0.6026    5.8231 N.1       1 <0>        -0.3542
     20 C14        -1.8365   -2.7388    5.3795 C.1       1 <0>         0.1948
     21 N4         -2.1739   -3.6401    5.9832 N.1       1 <0>        -0.3520
     22 C15        -3.5375   -1.3794    3.3521 C.ar      1 <0>        -0.1001
     23 C16        -4.4234   -2.4334    3.2289 C.ar      1 <0>        -0.1020
     24 C17        -5.7823   -2.2123    3.3524 C.ar      1 <0>        -0.1156
     25 C18        -6.2554   -0.9371    3.5997 C.ar      1 <0>        -0.1096
     26 C19        -5.3695    0.1167    3.7238 C.ar      1 <0>        -0.1132
     27 C20        -4.0103   -0.1052    3.6045 C.ar      1 <0>        -0.1088
     28 H4          0.8565    1.3507   -0.6300 H         1 <0>         0.0555
     29 H5         -0.7151    1.1672   -1.4453 H         1 <0>         0.0586
     30 H6         -0.6515    1.4578    0.3096 H         1 <0>         0.0604
     31 H7         -2.1027   -0.9143   -1.0343 H         1 <0>         0.0707
     32 H8         -1.4992   -2.1557    0.0938 H         1 <0>         0.0692
     33 H9         -2.2566    0.7087    0.8089 H         1 <0>         0.0758
     34 H10        -3.2139   -0.7394    1.1737 H         1 <0>         0.0798
     35 H11         1.7011   -1.0202    0.9531 H         1 <0>         0.1102
     36 H12         0.3548   -2.2108    6.4142 H         1 <0>         0.4049
     37 H13         1.7836   -1.9736    5.5628 H         1 <0>         0.4136
     38 H14        -4.0538   -3.4297    3.0357 H         1 <0>         0.1255
     39 H15        -6.4745   -3.0356    3.2554 H         1 <0>         0.1260
     40 H16        -7.3171   -0.7642    3.6955 H         1 <0>         0.1246
     41 H17        -5.7391    1.1130    3.9167 H         1 <0>         0.1252
     42 H18        -3.3179    0.7176    3.7052 H         1 <0>         0.1227
@<TRIPOS>BOND
     1    1    2 1
     2    1   28 1
     3    1   29 1
     4    1   30 1
     5    2    3 1
     6    2   14 1
     7    2    4 1
     8    4    5 1
     9    4   31 1
    10    4   32 1
    11    5    6 1
    12    5   33 1
    13    5   34 1
    14    6    7 1
    15    6   13 1
    16    6    8 1
    17    8    9 1
    18    8   10 1
    19    8   22 1
    20   10   11 1
    21   10   18 1
    22   10   20 1
    23   11   12 2
    24   11   17 1
    25   12   13 1
    26   12   15 1
    27   13   14 2
    28   14   35 1
    29   15   16 3
    30   17   36 1
    31   17   37 1
    32   18   19 3
    33   20   21 3
    34   22   27 ar
    35   22   23 ar
    36   23   24 ar
    37   23   38 1
    38   24   25 ar
    39   24   39 1
    40   25   26 ar
    41   25   40 1
    42   26   27 ar
    43   26   41 1
    44   27   42 1
@<TRIPOS>MOLECULE
ZINC38550227
   42    43     0     0     0
SMALL
USER_CHARGES

@<TRIPOS>ATOM
      1 C1          0.4130    1.3577   -0.8210 C.3       1 <0>        -0.1163
      2 C2          0.2085   -0.0734   -0.3953 C.ar      1 <0>        -0.0715
      3 C3          1.0607   -0.6447    0.5326 C.ar      1 <0>        -0.1289
      4 C4          0.8785   -1.9549    0.9258 C.ar      1 <0>        -0.0574
      5 C5         -0.1669   -2.7027    0.3865 C.ar      1 <0>        -0.0329
      6 C6         -1.0227   -2.1217   -0.5478 C.ar      1 <0>        -0.0453
      7 C7         -0.8341   -0.8090   -0.9297 C.ar      1 <0>        -0.1306
      8 C8         -2.1552   -2.9236   -1.1355 C.3       1 <0>        -0.1231
      9 C9         -0.3675   -4.1114    0.8047 C.2       1 <0>         0.1253
     10 C10        -0.5094   -4.4247    2.1276 C.2       1 <0>        -0.2392
     11 S1         -0.7132   -6.1983    2.0280 S.3       1 <0>         0.1206
     12 C11        -0.5896   -6.3378    0.2504 C.2       1 <0>         0.3314
     13 N1         -0.4165   -5.0773   -0.1009 N.2       1 <0>        -0.5304
     14 N2         -0.6617   -7.4715   -0.5497 N.am      1 <0>        -0.6210
     15 C12        -0.8511   -8.6819    0.0121 C.2       1 <0>         0.7064
     16 O1         -0.9587   -8.7817    1.2190 O.2       1 <0>        -0.5507
     17 N3         -0.9211   -9.7815   -0.7640 N.am      1 <0>        -0.7258
     18 C13        -1.1269  -11.0972   -0.1533 C.3       1 <0>         0.1531
     19 C14        -2.6236  -11.3318    0.0603 C.3       1 <0>        -0.1675
     20 C15        -0.5674  -12.1812   -1.0768 C.3       1 <0>        -0.1627
     21 C16         1.8083   -2.5762    1.9360 C.3       1 <0>        -0.1154
     22 H1         -0.1505    2.0171   -0.1610 H         1 <0>         0.0717
     23 H2          1.4729    1.6058   -0.7641 H         1 <0>         0.0669
     24 H3          0.0645    1.4852   -1.8459 H         1 <0>         0.0667
     25 H4          1.8703   -0.0644    0.9498 H         1 <0>         0.1241
     26 H5         -1.4990   -0.3565   -1.6505 H         1 <0>         0.1228
     27 H6         -3.0140   -2.8845   -0.4654 H         1 <0>         0.0647
     28 H7         -2.4310   -2.5070   -2.1042 H         1 <0>         0.0632
     29 H8         -1.8398   -3.9592   -1.2619 H         1 <0>         0.0856
     30 H9         -0.5002   -3.7794    2.9936 H         1 <0>         0.1958
     31 H10        -0.5758   -7.3918   -1.5126 H         1 <0>         0.4222
     32 H11        -0.8352   -9.7019   -1.7269 H         1 <0>         0.4018
     33 H12        -0.6122  -11.1366    0.8067 H         1 <0>         0.0940
     34 H13        -3.1382  -11.2923   -0.8997 H         1 <0>         0.0581
     35 H14        -2.7767  -12.3106    0.5147 H         1 <0>         0.0706
     36 H15        -3.0221  -10.5595    0.7182 H         1 <0>         0.0626
     37 H16         0.4989  -12.0141   -1.2290 H         1 <0>         0.0639
     38 H17        -0.7206  -13.1601   -0.6224 H         1 <0>         0.0786
     39 H18        -1.0821  -12.1418   -2.0368 H         1 <0>         0.0631
     40 H19         1.3691   -2.4977    2.9306 H         1 <0>         0.0726
     41 H20         1.9635   -3.6265    1.6893 H         1 <0>         0.0663
     42 H21         2.7648   -2.0538    1.9190 H         1 <0>         0.0669
@<TRIPOS>BOND
     1    1    2 1
     2    1   22 1
     3    1   23 1
     4    1   24 1
     5    2    7 ar
     6    2    3 ar
     7    3    4 ar
     8    3   25 1
     9    4    5 ar
    10    4   21 1
    11    5    6 ar
    12    5    9 1
    13    6    7 ar
    14    6    8 1
    15    7   26 1
    16    8   27 1
    17    8   28 1
    18    8   29 1
    19    9   13 1
    20    9   10 2
    21   10   11 1
    22   10   30 1
    23   11   12 1
    24   12   13 2
    25   12   14 1
    26   14   15 am
    27   14   31 1
    28   15   16 2
    29   15   17 am
    30   17   18 1
    31   17   32 1
    32   18   19 1
    33   18   20 1
    34   18   33 1
    35   19   34 1
    36   19   35 1
    37   19   36 1
    38   20   37 1
    39   20   38 1
    40   20   39 1
    41   21   40 1
    42   21   41 1
    43   21   42 1
@<TRIPOS>MOLECULE
ZINC49338237
   34    36     0     0     0
SMALL
USER_CHARGES

@<TRIPOS>ATOM
      1 C1         -0.0184    1.5028    0.0103 C.3       1 <0>        -0.0585
      2 C2          0.0021   -0.0041    0.0020 C.2       1 <0>        -0.2178
      3 C3         -1.0253   -0.8593    0.0018 C.2       1 <0>         0.0547
      4 N1         -0.7316   -2.1885   -0.0067 N.pl3     1 <0>        -0.6276
      5 H1         -1.4401   -2.8510   -0.0076 H         1 <0>         0.4332
      6 C4          0.5752   -2.5707   -0.0144 C.2       1 <0>         0.3740
      7 N2          1.0761   -3.8041   -0.0239 N.2       1 <0>        -0.6140
      8 C5          0.2555   -4.8583   -0.0268 C.2       1 <0>         0.6824
      9 O1         -0.9518   -4.6909   -0.0208 O.2       1 <0>        -0.6294
     10 N3          0.7627   -6.1070   -0.0364 N.am      1 <0>        -0.7014
     11 C6         -0.1372   -7.2631   -0.0396 C.3       1 <0>         0.1972
     12 H2         -1.0333   -7.0457    0.5416 H         1 <0>         0.1007
     13 C7          0.5828   -8.5037    0.5301 C.3       1 <0>        -0.1258
     14 C8          1.1519   -9.1693   -0.7408 C.3       1 <0>        -0.0838
     15 C9          0.2337   -8.7322   -1.8619 C.ar      1 <0>        -0.0784
     16 C10        -0.5091   -7.6352   -1.4590 C.ar      1 <0>        -0.1014
     17 C11        -1.4228   -7.0615   -2.3268 C.ar      1 <0>        -0.0803
     18 C12        -1.5970   -7.5791   -3.5958 C.ar      1 <0>        -0.1131
     19 C13        -0.8577   -8.6737   -4.0019 C.ar      1 <0>        -0.1026
     20 C14         0.0595   -9.2521   -3.1345 C.ar      1 <0>        -0.0280
     21 Cl1         0.9889  -10.6277   -3.6421 Cl        1 <0>        -0.0697
     22 S1          1.4028   -1.1071   -0.0179 S.3       1 <0>         0.1992
     23 H3          1.0042    1.8801    0.0026 H         1 <0>         0.0786
     24 H4         -0.5455    1.8639   -0.8728 H         1 <0>         0.0822
     25 H5         -0.5286    1.8543    0.9071 H         1 <0>         0.0823
     26 H6         -2.0472   -0.5098    0.0084 H         1 <0>         0.1848
     27 H7          1.7235   -6.2402   -0.0412 H         1 <0>         0.4071
     28 H8          1.3857   -8.2094    1.2060 H         1 <0>         0.0905
     29 H9         -0.1236   -9.1657    1.0310 H         1 <0>         0.0928
     30 H10         2.1681   -8.8219   -0.9271 H         1 <0>         0.0874
     31 H11         1.1350  -10.2545   -0.6395 H         1 <0>         0.0858
     32 H12        -2.0012   -6.2059   -2.0107 H         1 <0>         0.1289
     33 H13        -2.3107   -7.1288   -4.2698 H         1 <0>         0.1340
     34 H14        -0.9931   -9.0799   -4.9934 H         1 <0>         0.1359
@<TRIPOS>BOND
     1    1    2 1
     2    1   23 1
     3    1   24 1
     4    1   25 1
     5    2   22 1
     6    2    3 2
     7    3    4 1
     8    3   26 1
     9    4    5 1
    10    4    6 1
    11    6    7 2
    12    6   22 1
    13    7    8 1
    14    8    9 2
    15    8   10 am
    16   10   11 1
    17   10   27 1
    18   11   12 1
    19   11   16 1
    20   11   13 1
    21   13   14 1
    22   13   28 1
    23   13   29 1
    24   14   15 1
    25   14   30 1
    26   14   31 1
    27   15   20 ar
    28   15   16 ar
    29   16   17 ar
    30   17   18 ar
    31   17   32 1
    32   18   19 ar
    33   18   33 1
    34   19   20 ar
    35   19   34 1
    36   20   21 1
@<TRIPOS>MOLECULE
ZINC19802044
   42    44     0     0     0
SMALL
USER_CHARGES

@<TRIPOS>ATOM
      1 C1         -0.0184    1.5028    0.0103 C.3       1 <0>        -0.1108
      2 C2          0.0021   -0.0041    0.0020 C.2       1 <0>         0.2296
      3 C3         -1.1832   -0.6709    0.0042 C.2       1 <0>        -0.2514
      4 C4         -1.1327   -2.1884   -0.0053 C.3       1 <0>         0.1202
      5 H1         -1.6588   -2.5526    0.8772 H         1 <0>         0.0417
      6 C5          0.2551   -2.8006   -0.0169 C.2       1 <0>        -0.4008
      7 C6          0.4050   -4.1351   -0.0288 C.2       1 <0>         0.3302
      8 C7          1.7714   -4.7679   -0.0382 C.3       1 <0>        -0.1181
      9 C8          2.7573   -3.8322   -0.7437 C.3       1 <0>        -0.0564
     10 C9          2.7574   -2.4797   -0.0259 C.3       1 <0>        -0.0671
     11 C10         1.3538   -1.9229   -0.0164 C.2       1 <0>         0.2936
     12 N1          1.1763   -0.6233   -0.0125 N.2       1 <0>        -0.6348
     13 C11         2.3284   -3.6395   -2.1997 C.3       1 <0>        -0.1439
     14 C12         4.1616   -4.4375   -0.6965 C.3       1 <0>        -0.1376
     15 O1         -0.6885   -4.9232   -0.0319 O.3       1 <0>        -0.6354
     16 C13        -1.8698   -2.6771   -1.2255 C.ar      1 <0>        -0.0365
     17 C14        -1.4396   -2.3065   -2.4861 C.ar      1 <0>        -0.0920
     18 C15        -2.1139   -2.7528   -3.6062 C.ar      1 <0>        -0.1529
     19 C16        -3.2231   -3.5740   -3.4654 C.ar      1 <0>         0.0740
     20 C17        -3.6525   -3.9448   -2.1994 C.ar      1 <0>        -0.1498
     21 C18        -2.9717   -3.5001   -1.0826 C.ar      1 <0>        -0.0732
     22 O2         -3.8883   -4.0140   -4.5657 O.3       1 <0>        -0.5052
     23 C19        -2.4312    0.0313    0.0153 C.1       1 <0>         0.2954
     24 N2         -3.4212    0.5883    0.0242 N.1       1 <0>        -0.4967
     25 H2          1.0042    1.8801    0.0026 H         1 <0>         0.0715
     26 H3         -0.5455    1.8639   -0.8728 H         1 <0>         0.0638
     27 H4         -0.5286    1.8543    0.9071 H         1 <0>         0.0640
     28 H5          2.1009   -4.9376    0.9869 H         1 <0>         0.0774
     29 H6          1.7285   -5.7187   -0.5693 H         1 <0>         0.0731
     30 H7          3.1037   -2.6114    0.9992 H         1 <0>         0.0801
     31 H8          3.4195   -1.7897   -0.5491 H         1 <0>         0.0797
     32 H9          1.3299   -3.2034   -2.2297 H         1 <0>         0.0692
     33 H10         3.0311   -2.9734   -2.7003 H         1 <0>         0.0498
     34 H11         2.3188   -4.6046   -2.7063 H         1 <0>         0.0486
     35 H12         4.1574   -5.4049   -1.1986 H         1 <0>         0.0539
     36 H13         4.8620   -3.7703   -1.1990 H         1 <0>         0.0546
     37 H14         4.4661   -4.5685    0.3419 H         1 <0>         0.0539
     38 H15        -0.5760   -1.6672   -2.5953 H         1 <0>         0.1149
     39 H16        -1.7779   -2.4625   -4.5907 H         1 <0>         0.1147
     40 H17        -4.5158   -4.5840   -2.0871 H         1 <0>         0.1146
     41 H18        -3.3029   -3.7921   -0.0970 H         1 <0>         0.1154
     42 H19        -3.5582   -4.8529   -4.9156 H         1 <0>         0.3786
@<TRIPOS>BOND
     1    1    2 1
     2    1   25 1
     3    1   26 1
     4    1   27 1
     5    2   12 1
     6    2    3 2
     7    3    4 1
     8    3   23 1
     9    4    5 1
    10    4    6 1
    11    4   16 1
    12    6   11 1
    13    6    7 2
    14    7    8 1
    15    7   15 1
    16    8    9 1
    17    8   28 1
    18    8   29 1
    19    9   10 1
    20    9   13 1
    21    9   14 1
    22   10   11 1
    23   10   30 1
    24   10   31 1
    25   11   12 2
    26   13   32 1
    27   13   33 1
    28   13   34 1
    29   14   35 1
    30   14   36 1
    31   14   37 1
    32   16   21 ar
    33   16   17 ar
    34   17   18 ar
    35   17   38 1
    36   18   19 ar
    37   18   39 1
    38   19   20 ar
    39   19   22 1
    40   20   21 ar
    41   20   40 1
    42   21   41 1
    43   22   42 1
    44   23   24 3
@<TRIPOS>MOLECULE
ZINC19482878
   37    40     0     0     0
SMALL
USER_CHARGES
[(2R)-3,4-dihydro-2H-1,4-benzoxazin-2-yl]-indolin-1-yl-methanone
@<TRIPOS>ATOM
      1 C1          3.9293   -9.0350   -0.4630 C.ar      1 <0>        -0.1360
      2 C2          2.7573   -8.4613   -0.9211 C.ar      1 <0>        -0.0932
      3 C3          2.4968   -7.1291   -0.6813 C.ar      1 <0>        -0.1284
      4 C4          3.4139   -6.3484    0.0252 C.ar      1 <0>         0.1415
      5 C5          4.5852   -6.9327    0.4799 C.ar      1 <0>        -0.1366
      6 C6          4.8420   -8.2685    0.2371 C.ar      1 <0>        -0.0804
      7 C7          5.3961   -5.8832    1.2063 C.3       1 <0>        -0.0893
      8 C8          4.5473   -4.6048    1.1125 C.3       1 <0>         0.0929
      9 N1          3.3448   -4.9955    0.3717 N.am      1 <0>        -0.5489
     10 C9          2.3245   -4.1703    0.0644 C.2       1 <0>         0.5328
     11 O1          1.3316   -4.6091   -0.4766 O.2       1 <0>        -0.4838
     12 C10         2.4173   -2.7025    0.3929 C.3       1 <0>         0.0644
     13 H1          2.6709   -2.5709    1.4551 H         1 <0>         0.1026
     14 C11         3.4385   -2.0308   -0.5362 C.3       1 <0>         0.1014
     15 N2          3.4582   -0.5942   -0.2115 N.pl3     1 <0>        -0.7612
     16 C12         2.2272    0.0388    0.0226 C.ar      1 <0>         0.1427
     17 C13         2.1519    1.4223    0.0508 C.ar      1 <0>        -0.1543
     18 C14         0.9380    2.0414    0.2858 C.ar      1 <0>        -0.1048
     19 C15        -0.1984    1.2815    0.4926 C.ar      1 <0>        -0.1350
     20 C16        -0.1288   -0.0989    0.4644 C.ar      1 <0>        -0.1015
     21 C17         1.0839   -0.7285    0.2285 C.ar      1 <0>         0.0536
     22 O2          1.1421   -2.0863    0.1980 O.3       1 <0>        -0.2921
     23 H2          4.1308  -10.0791   -0.6515 H         1 <0>         0.1287
     24 H3          2.0433   -9.0593   -1.4679 H         1 <0>         0.1300
     25 H4          1.5795   -6.6873   -1.0414 H         1 <0>         0.1388
     26 H5          5.7578   -8.7149    0.5956 H         1 <0>         0.1271
     27 H6          5.5509   -6.1964    2.2493 H         1 <0>         0.0953
     28 H7          6.3709   -5.7649    0.7105 H         1 <0>         0.0952
     29 H8          4.3017   -4.2527    2.1252 H         1 <0>         0.0895
     30 H9          5.1144   -3.8263    0.5811 H         1 <0>         0.0876
     31 H10         4.4314   -2.4748   -0.3718 H         1 <0>         0.0997
     32 H11         3.1375   -2.1833   -1.5832 H         1 <0>         0.0771
     33 H12         4.4157   -0.0552   -0.1594 H         1 <0>         0.4326
     34 H13         3.0397    2.0159   -0.1104 H         1 <0>         0.1257
     35 H14         0.8774    3.1195    0.3080 H         1 <0>         0.1259
     36 H15        -1.1454    1.7685    0.6726 H         1 <0>         0.1286
     37 H16        -1.0199   -0.6874    0.6258 H         1 <0>         0.1319
@<TRIPOS>BOND
     1    1    6 ar
     2    1    2 ar
     3    1   23 1
     4    2    3 ar
     5    2   24 1
     6    3    4 ar
     7    3   25 1
     8    4    9 1
     9    4    5 ar
    10    5    6 ar
    11    5    7 1
    12    6   26 1
    13    7    8 1
    14    7   27 1
    15    7   28 1
    16    8    9 1
    17    8   29 1
    18    8   30 1
    19    9   10 am
    20   10   11 2
    21   10   12 1
    22   12   13 1
    23   12   22 1
    24   12   14 1
    25   14   15 1
    26   14   31 1
    27   14   32 1
    28   15   16 1
    29   15   33 1
    30   16   21 ar
    31   16   17 ar
    32   17   18 ar
    33   17   34 1
    34   18   19 ar
    35   18   35 1
    36   19   20 ar
    37   19   36 1
    38   20   21 ar
    39   20   37 1
    40   21   22 1
@<TRIPOS>MOLECULE
ZINC36756535
   30    31     0     0     0
SMALL
USER_CHARGES

@<TRIPOS>ATOM
      1 C1         -0.0201    1.5197    0.0356 C.3       1 <0>        -0.1525
      2 C2         -0.0061   -0.0102    0.0319 C.3       1 <0>        -0.1250
      3 C3         -1.4439   -0.5333    0.0184 C.3       1 <0>         0.0957
      4 H1         -2.0139   -0.1063    0.8436 H         1 <0>         0.1367
      5 C4         -1.4611   -2.0476    0.0856 C.2       1 <0>         0.5225
      6 O1         -1.0305   -2.7459    0.9782 O.2       1 <0>        -0.4452
      7 N1         -2.0555   -2.4560   -1.0529 N.am      1 <0>        -0.5185
      8 C5         -2.4124   -1.4211   -1.8220 C.2       1 <0>         0.7048
      9 O2         -2.9651   -1.5381   -2.8981 O.2       1 <0>        -0.5252
     10 N2         -2.0925   -0.2331   -1.2697 N.am      1 <0>        -0.7168
     11 C6         -2.2722   -3.7996   -1.3900 C.ar      1 <0>         0.1361
     12 C7         -2.9998   -4.1225   -2.5277 C.ar      1 <0>        -0.1248
     13 C8         -3.2122   -5.4466   -2.8579 C.ar      1 <0>        -0.0897
     14 C9         -2.7014   -6.4512   -2.0565 C.ar      1 <0>        -0.0798
     15 C10        -1.9763   -6.1330   -0.9218 C.ar      1 <0>        -0.0208
     16 C11        -1.7551   -4.8091   -0.5903 C.ar      1 <0>        -0.1268
     17 Cl1        -1.3377   -7.3971    0.0823 Cl        1 <0>        -0.0550
     18 C12        -2.9354   -7.8950   -2.4195 C.3       1 <0>        -0.1210
     19 H2          1.0042    1.8923    0.0452 H         1 <0>         0.0686
     20 H3         -0.5296    1.8805   -0.8579 H         1 <0>         0.0574
     21 H4         -0.5447    1.8761    0.9220 H         1 <0>         0.0635
     22 H5          0.5185   -0.3667   -0.8545 H         1 <0>         0.0769
     23 H6          0.5034   -0.3711    0.9254 H         1 <0>         0.0941
     24 H7         -2.2565    0.6462   -1.6450 H         1 <0>         0.4456
     25 H8         -3.3998   -3.3387   -3.1539 H         1 <0>         0.1680
     26 H9         -3.7781   -5.6978   -3.7428 H         1 <0>         0.1421
     27 H10        -1.1848   -4.5608    0.2926 H         1 <0>         0.1620
     28 H11        -2.1259   -8.2443   -3.0604 H         1 <0>         0.0783
     29 H12        -2.9659   -8.4975   -1.5116 H         1 <0>         0.0751
     30 H13        -3.8837   -7.9874   -2.9489 H         1 <0>         0.0738
@<TRIPOS>BOND
     1    1    2 1
     2    1   19 1
     3    1   20 1
     4    1   21 1
     5    2    3 1
     6    2   22 1
     7    2   23 1
     8    3    4 1
     9    3   10 1
    10    3    5 1
    11    5    6 2
    12    5    7 am
    13    7    8 am
    14    7   11 1
    15    8    9 2
    16    8   10 am
    17   10   24 1
    18   11   16 ar
    19   11   12 ar
    20   12   13 ar
    21   12   25 1
    22   13   14 ar
    23   13   26 1
    24   14   15 ar
    25   14   18 1
    26   15   16 ar
    27   15   17 1
    28   16   27 1
    29   18   28 1
    30   18   29 1
    31   18   30 1
@<TRIPOS>MOLECULE
ZINC45950020
   34    36     0     0     0
SMALL
USER_CHARGES

@<TRIPOS>ATOM
      1 C1          0.1544    1.6177    0.0728 C.3       1 <0>        -0.1460
      2 C2          0.0726    0.0914    0.0047 C.3       1 <0>        -0.0990
      3 H1          0.5827   -0.2601   -0.8921 H         1 <0>         0.0854
      4 C3         -1.3949   -0.3391   -0.0415 C.3       1 <0>        -0.1532
      5 C4         -1.4767   -1.8654   -0.1097 C.3       1 <0>        -0.0867
      6 C5         -0.8072   -2.4677    1.1272 C.3       1 <0>        -0.1588
      7 C6          0.6603   -2.0372    1.1734 C.3       1 <0>        -0.1274
      8 C7          0.7421   -0.5109    1.2415 C.3       1 <0>         0.1491
      9 H2          1.7875   -0.2042    1.2745 H         1 <0>         0.1139
     10 N1          0.0564   -0.0384    2.4469 N.am      1 <0>        -0.5296
     11 C8         -1.2579   -0.3043    2.6230 C.2       1 <0>         0.4595
     12 O1         -1.8787   -0.9353    1.7864 O.2       1 <0>        -0.3594
     13 C9         -1.8930    0.1561    3.7810 C.2       1 <0>        -0.3281
     14 C10        -1.1982    0.8812    4.7527 C.2       1 <0>         0.1746
     15 C11        -1.9840    1.2601    5.8370 C.2       1 <0>        -0.1981
     16 C12        -3.2905    0.9173    5.8685 C.2       1 <0>        -0.2024
     17 S1         -3.5346    0.0656    4.4400 S.3       1 <0>         0.3144
     18 N2          0.1607    1.1163    4.4973 N.am      1 <0>        -0.6320
     19 H3          0.6907    1.6147    5.1389 H         1 <0>         0.4307
     20 C13         0.7363    0.6533    3.3771 C.2       1 <0>         0.7103
     21 O2          1.9183    0.8726    3.1940 O.2       1 <0>        -0.5477
     22 H4          1.1998    1.9244    0.1057 H         1 <0>         0.0575
     23 H5         -0.3226    2.0468   -0.8083 H         1 <0>         0.0595
     24 H6         -0.3558    1.9692    0.9696 H         1 <0>         0.0466
     25 H7         -1.9051    0.0124    0.8553 H         1 <0>         0.1450
     26 H8         -1.8719    0.0900   -0.9227 H         1 <0>         0.0433
     27 H9         -2.5221   -2.1721   -0.1426 H         1 <0>         0.0587
     28 H10        -0.9665   -2.2169   -1.0065 H         1 <0>         0.0439
     29 H11        -1.3174   -2.1162    2.0240 H         1 <0>         0.1442
     30 H12        -0.8655   -3.5551    1.0787 H         1 <0>         0.0430
     31 H13         1.1372   -2.4663    2.0546 H         1 <0>         0.0647
     32 H14         1.1705   -2.3887    0.2766 H         1 <0>         0.0790
     33 H15        -1.5514    1.8250    6.6495 H         1 <0>         0.1443
     34 H16        -4.0147    1.1401    6.6382 H         1 <0>         0.2011
@<TRIPOS>BOND
     1    1    2 1
     2    1   22 1
     3    1   23 1
     4    1   24 1
     5    2    3 1
     6    2    8 1
     7    2    4 1
     8    4    5 1
     9    4   25 1
    10    4   26 1
    11    5    6 1
    12    5   27 1
    13    5   28 1
    14    6    7 1
    15    6   29 1
    16    6   30 1
    17    7    8 1
    18    7   31 1
    19    7   32 1
    20    8    9 1
    21    8   10 1
    22   10   20 am
    23   10   11 am
    24   11   12 2
    25   11   13 1
    26   13   17 1
    27   13   14 2
    28   14   15 1
    29   14   18 1
    30   15   16 2
    31   15   33 1
    32   16   17 1
    33   16   34 1
    34   18   19 1
    35   18   20 am
    36   20   21 2
@<TRIPOS>MOLECULE
ZINC51732913
   42    44     0     0     0
SMALL
USER_CHARGES

@<TRIPOS>ATOM
      1 C1         -0.4729    1.5054    0.1002 C.3       1 <0>        -0.1481
      2 C2         -0.2263   -0.0040    0.0585 C.3       1 <0>        -0.0932
      3 H1         -1.1771   -0.5242   -0.0573 H         1 <0>         0.0735
      4 C3          0.6856   -0.3391   -1.1240 C.3       1 <0>        -0.1318
      5 C4          0.9023   -1.8545   -1.1832 C.3       1 <0>         0.0986
      6 N1          1.4093   -2.3108    0.1181 N.am      1 <0>        -0.6055
      7 C5          0.6559   -1.9642    1.3309 C.3       1 <0>         0.1462
      8 H2         -0.3100   -2.4692    1.3179 H         1 <0>         0.0753
      9 C6          0.4423   -0.4475    1.3617 C.3       1 <0>        -0.1280
     10 C7          1.4455   -2.3991    2.5672 C.3       1 <0>        -0.1409
     11 C8          2.5438   -3.0340    0.1978 C.2       1 <0>         0.5256
     12 O1          3.0051   -3.3211    1.2821 O.2       1 <0>        -0.4983
     13 C9          3.2392   -3.4860   -1.0605 C.3       1 <0>         0.0573
     14 H3          3.4446   -2.6233   -1.6944 H         1 <0>         0.0969
     15 C10         2.3431   -4.4778   -1.8158 C.3       1 <0>         0.0972
     16 N2          3.0826   -4.9275   -3.0077 N.pl3     1 <0>        -0.7533
     17 C11         4.4480   -5.2175   -2.8576 C.ar      1 <0>         0.1342
     18 C12         5.1246   -5.9081   -3.8505 C.ar      1 <0>        -0.1530
     19 C13         6.4703   -6.1885   -3.6997 C.ar      1 <0>        -0.1063
     20 C14         7.1394   -5.7801   -2.5609 C.ar      1 <0>        -0.1327
     21 C15         6.4687   -5.0922   -1.5669 C.ar      1 <0>        -0.1030
     22 C16         5.1189   -4.8083   -1.7083 C.ar      1 <0>         0.0576
     23 O2          4.4671   -4.1354   -0.7225 O.3       1 <0>        -0.2853
     24 H4          0.4778    2.0259    0.2159 H         1 <0>         0.0552
     25 H5         -0.9495    1.8215   -0.8278 H         1 <0>         0.0565
     26 H6         -1.1228    1.7443    0.9421 H         1 <0>         0.0573
     27 H7          0.2195   -0.0018   -2.0498 H         1 <0>         0.0795
     28 H8          1.6456    0.1610   -0.9963 H         1 <0>         0.0697
     29 H9         -0.0435   -2.3506   -1.4012 H         1 <0>         0.0763
     30 H10         1.6285   -2.0897   -1.9612 H         1 <0>         0.0846
     31 H11         1.4046    0.0536    1.4658 H         1 <0>         0.0693
     32 H12        -0.1970   -0.1874    2.2054 H         1 <0>         0.0781
     33 H13         2.4360   -1.9446    2.5441 H         1 <0>         0.0728
     34 H14         0.9192   -2.0778    3.4660 H         1 <0>         0.0476
     35 H15         1.5438   -3.4846    2.5721 H         1 <0>         0.0719
     36 H16         2.1163   -5.3316   -1.1773 H         1 <0>         0.0761
     37 H17         1.4189   -3.9852   -2.1180 H         1 <0>         0.1002
     38 H18         2.6413   -5.0203   -3.8665 H         1 <0>         0.4099
     39 H19         4.6019   -6.2269   -4.7401 H         1 <0>         0.1252
     40 H20         6.9991   -6.7267   -4.4724 H         1 <0>         0.1259
     41 H21         8.1907   -5.9999   -2.4471 H         1 <0>         0.1286
     42 H22         6.9965   -4.7759   -0.6793 H         1 <0>         0.1324
@<TRIPOS>BOND
     1    1    2 1
     2    1   24 1
     3    1   25 1
     4    1   26 1
     5    2    3 1
     6    2    9 1
     7    2    4 1
     8    4    5 1
     9    4   27 1
    10    4   28 1
    11    5    6 1
    12    5   29 1
    13    5   30 1
    14    6    7 1
    15    6   11 am
    16    7    8 1
    17    7    9 1
    18    7   10 1
    19    9   31 1
    20    9   32 1
    21   10   33 1
    22   10   34 1
    23   10   35 1
    24   11   12 2
    25   11   13 1
    26   13   14 1
    27   13   23 1
    28   13   15 1
    29   15   16 1
    30   15   36 1
    31   15   37 1
    32   16   17 1
    33   16   38 1
    34   17   22 ar
    35   17   18 ar
    36   18   19 ar
    37   18   39 1
    38   19   20 ar
    39   19   40 1
    40   20   21 ar
    41   20   41 1
    42   21   22 ar
    43   21   42 1
    44   22   23 1
@<TRIPOS>MOLECULE
ZINC62606194
   43    45     0     0     0
SMALL
USER_CHARGES

@<TRIPOS>ATOM
      1 C1          0.0614    0.8010   -0.7689 C.ar      1 <0>        -0.1098
      2 C2          1.0338    1.5949   -0.1900 C.ar      1 <0>        -0.1168
      3 C3          2.3030    1.0895    0.0216 C.ar      1 <0>        -0.0884
      4 C4          2.5996   -0.2098   -0.3453 C.ar      1 <0>        -0.0939
      5 C5          1.6269   -1.0040   -0.9234 C.ar      1 <0>        -0.1104
      6 C6          0.3582   -0.4981   -1.1363 C.ar      1 <0>        -0.1195
      7 C7          3.9834   -0.7605   -0.1156 C.3       1 <0>         0.1753
      8 H1          4.6273    0.0243    0.2814 H         1 <0>         0.1344
      9 C8          4.5472   -1.2651   -1.4158 C.2       1 <0>         0.5228
     10 O1          4.8968   -0.4549   -2.2479 O.2       1 <0>        -0.5308
     11 N1          4.6799   -2.5624   -1.6959 N.am      1 <0>        -0.7181
     12 C9          4.3889   -3.6433   -0.7641 C.3       1 <0>         0.0927
     13 C10         3.4325   -3.1715    0.3328 C.3       1 <0>         0.0708
     14 N2          3.9175   -1.8747    0.8418 N.am      1 <0>        -0.6118
     15 C11         4.2864   -1.7165    2.1284 C.2       1 <0>         0.5269
     16 O2          4.5898   -0.6174    2.5415 O.2       1 <0>        -0.5236
     17 C12         4.3219   -2.9055    3.0537 C.3       1 <0>        -0.1029
     18 C13         2.8955   -3.3977    3.3066 C.3       1 <0>        -0.1190
     19 C14         2.9316   -4.6048    4.2460 C.3       1 <0>        -0.1175
     20 C15         3.5740   -4.1986    5.5739 C.3       1 <0>        -0.1236
     21 C16         5.0004   -3.7065    5.3209 C.3       1 <0>        -0.1198
     22 C17         4.9643   -2.4994    4.3815 C.3       1 <0>        -0.1005
     23 H2         -0.9314    1.1944   -0.9301 H         1 <0>         0.1254
     24 H3          0.8021    2.6100    0.0967 H         1 <0>         0.1274
     25 H4          3.0629    1.7099    0.4733 H         1 <0>         0.1274
     26 H5          1.8587   -2.0190   -1.2104 H         1 <0>         0.1211
     27 H6         -0.4017   -1.1184   -1.5883 H         1 <0>         0.1252
     28 H7          4.9924   -2.8028   -2.5821 H         1 <0>         0.4042
     29 H8          3.9322   -4.4713   -1.3064 H         1 <0>         0.0952
     30 H9          5.3184   -3.9836   -0.3077 H         1 <0>         0.0744
     31 H10         2.4302   -3.0532   -0.0789 H         1 <0>         0.0905
     32 H11         3.4142   -3.9001    1.1433 H         1 <0>         0.1186
     33 H12         4.9062   -3.7042    2.5967 H         1 <0>         0.0971
     34 H13         2.3113   -2.5990    3.7636 H         1 <0>         0.0715
     35 H14         2.4379   -3.6870    2.3606 H         1 <0>         0.0728
     36 H15         1.9154   -4.9554    4.4263 H         1 <0>         0.0679
     37 H16         3.5158   -5.4035    3.7890 H         1 <0>         0.0652
     38 H17         2.9897   -3.3999    6.0309 H         1 <0>         0.0637
     39 H18         3.5997   -5.0586    6.2432 H         1 <0>         0.0645
     40 H19         5.4581   -3.4171    6.2669 H         1 <0>         0.0674
     41 H20         5.5846   -4.5052    4.8640 H         1 <0>         0.0629
     42 H21         5.9805   -2.1487    4.2013 H         1 <0>         0.0685
     43 H22         4.3801   -1.7007    4.8385 H         1 <0>         0.0730
@<TRIPOS>BOND
     1    1    6 ar
     2    1    2 ar
     3    1   23 1
     4    2    3 ar
     5    2   24 1
     6    3    4 ar
     7    3   25 1
     8    4    5 ar
     9    4    7 1
    10    5    6 ar
    11    5   26 1
    12    6   27 1
    13    7    8 1
    14    7   14 1
    15    7    9 1
    16    9   10 2
    17    9   11 am
    18   11   12 1
    19   11   28 1
    20   12   13 1
    21   12   29 1
    22   12   30 1
    23   13   14 1
    24   13   31 1
    25   13   32 1
    26   14   15 am
    27   15   16 2
    28   15   17 1
    29   17   22 1
    30   17   18 1
    31   17   33 1
    32   18   19 1
    33   18   34 1
    34   18   35 1
    35   19   20 1
    36   19   36 1
    37   19   37 1
    38   20   21 1
    39   20   38 1
    40   20   39 1
    41   21   22 1
    42   21   40 1
    43   21   41 1
    44   22   42 1
    45   22   43 1
@<TRIPOS>MOLECULE
ZINC00044764
   43    45     0     0     0
SMALL
USER_CHARGES
2-amino-7,7-dimethyl-4-(o-tolyl)-5-oxo-6,8-dihydro-4H-chromene-3-carbonitrile
@<TRIPOS>ATOM
      1 C1          2.5280    3.7563   -0.3191 C.3       1 <0>        -0.1228
      2 C2          1.1930    3.0792   -0.1447 C.ar      1 <0>        -0.0639
      3 C3          1.1332    1.7162    0.0789 C.ar      1 <0>        -0.1207
      4 C4         -0.0911    1.0952    0.2388 C.ar      1 <0>        -0.1166
      5 C5         -1.2563    1.8362    0.1698 C.ar      1 <0>        -0.1273
      6 C6         -1.1963    3.1997   -0.0485 C.ar      1 <0>        -0.1041
      7 C7          0.0285    3.8209   -0.2080 C.ar      1 <0>        -0.0727
      8 C8          0.0937    5.3067   -0.4513 C.3       1 <0>         0.0862
      9 H1          1.1367    5.6207   -0.4932 H         1 <0>         0.1044
     10 C9         -0.5737    5.6274   -1.7595 C.2       1 <0>        -0.2585
     11 C10        -1.8283    6.1393   -1.7819 C.2       1 <0>         0.4234
     12 O1         -2.5089    6.3703   -0.6484 O.3       1 <0>        -0.2386
     13 C11        -1.8441    6.5202    0.5127 C.2       1 <0>         0.1665
     14 C12        -0.6018    6.0297    0.6767 C.2       1 <0>        -0.2594
     15 C13         0.0856    6.1711    1.8976 C.2       1 <0>         0.4040
     16 O2          1.2119    5.7285    2.0025 O.2       1 <0>        -0.4465
     17 C14        -0.5496    6.8608    3.0742 C.3       1 <0>        -0.1513
     18 C15        -2.0707    6.6991    2.9815 C.3       1 <0>        -0.0550
     19 C16        -2.5364    7.2570    1.6353 C.3       1 <0>        -0.0722
     20 C17        -2.4370    5.2167    3.0781 C.3       1 <0>        -0.1569
     21 C18        -2.7403    7.4736    4.1184 C.3       1 <0>        -0.1419
     22 N1         -2.4150    6.4280   -2.9889 N.pl3     1 <0>        -0.8301
     23 C19         0.1204    5.3904   -2.9895 C.1       1 <0>         0.2716
     24 N2          0.6709    5.2024   -3.9652 N.1       1 <0>        -0.4381
     25 H2          2.7529    3.8480   -1.3817 H         1 <0>         0.0652
     26 H3          2.4941    4.7480    0.1320 H         1 <0>         0.0808
     27 H4          3.3027    3.1627    0.1663 H         1 <0>         0.0658
     28 H5          2.0432    1.1366    0.1284 H         1 <0>         0.1210
     29 H6         -0.1379    0.0304    0.4132 H         1 <0>         0.1203
     30 H7         -2.2133    1.3502    0.2903 H         1 <0>         0.1194
     31 H8         -2.1063    3.7792   -0.0983 H         1 <0>         0.1123
     32 H9         -0.2154    6.4492    3.9221 H         1 <0>         0.0924
     33 H10        -0.2934    7.9202    3.0584 H         1 <0>         0.1054
     34 H11        -3.6148    7.1286    1.5429 H         1 <0>         0.1034
     35 H12        -2.2910    8.3175    1.5777 H         1 <0>         0.1089
     36 H13        -2.0880    4.8176    4.0305 H         1 <0>         0.0651
     37 H14        -3.5192    5.1048    3.0120 H         1 <0>         0.0652
     38 H15        -1.9647    4.6717    2.2608 H         1 <0>         0.0628
     39 H16        -2.4832    8.5299    4.0392 H         1 <0>         0.0628
     40 H17        -3.8218    7.3568    4.0500 H         1 <0>         0.0650
     41 H18        -2.3929    7.0860    5.0761 H         1 <0>         0.0667
     42 H19        -3.3125    6.7950   -3.0164 H         1 <0>         0.4117
     43 H20        -1.9322    6.2650   -3.8142 H         1 <0>         0.4263
@<TRIPOS>BOND
     1    1    2 1
     2    1   25 1
     3    1   26 1
     4    1   27 1
     5    2    7 ar
     6    2    3 ar
     7    3    4 ar
     8    3   28 1
     9    4    5 ar
    10    4   29 1
    11    5    6 ar
    12    5   30 1
    13    6    7 ar
    14    6   31 1
    15    7    8 1
    16    8    9 1
    17    8   14 1
    18    8   10 1
    19   10   11 2
    20   10   23 1
    21   11   12 1
    22   11   22 1
    23   12   13 1
    24   13   19 1
    25   13   14 2
    26   14   15 1
    27   15   16 2
    28   15   17 1
    29   17   18 1
    30   17   32 1
    31   17   33 1
    32   18   19 1
    33   18   20 1
    34   18   21 1
    35   19   34 1
    36   19   35 1
    37   20   36 1
    38   20   37 1
    39   20   38 1
    40   21   39 1
    41   21   40 1
    42   21   41 1
    43   22   42 1
    44   22   43 1
    45   23   24 3
@<TRIPOS>MOLECULE
ZINC37063163
   44    45     0     0     0
SMALL
USER_CHARGES

@<TRIPOS>ATOM
      1 C1         -0.0187    1.5258    0.0104 C.3       1 <0>        -0.1489
      2 C2          0.0021   -0.0041    0.0020 C.3       1 <0>        -0.0860
      3 C3          0.7074   -0.4901   -1.2379 C.ar      1 <0>        -0.1051
      4 C4         -0.0214   -0.8172   -2.3647 C.ar      1 <0>        -0.0903
      5 C5          0.6249   -1.2636   -3.5025 C.ar      1 <0>        -0.0754
      6 C6          2.0027   -1.3838   -3.5168 C.ar      1 <0>        -0.6302
      7 C7          2.7375   -1.0581   -2.3940 C.ar      1 <0>        -0.0943
      8 C8          2.0916   -0.6042   -1.2507 C.ar      1 <0>         0.2029
      9 N1          2.8321   -0.2689   -0.1149 N.pl3     1 <0>        -0.8757
     10 S1          2.8212   -1.9538   -4.9693 S.o2      1 <0>         2.6878
     11 O1          4.0649   -2.4970   -4.5480 O.2       1 <0>        -0.9561
     12 O2          1.8681   -2.7115   -5.7018 O.2       1 <0>        -0.9544
     13 N2          3.1734   -0.6215   -5.8876 N.pl3     1 <0>        -0.9930
     14 C9          2.2150   -0.1246   -6.8842 C.3       1 <0>         0.1243
     15 C10         1.9525    1.3610   -6.6179 C.3       1 <0>        -0.1102
     16 H1          1.4542    1.4755   -5.6552 H         1 <0>         0.0795
     17 C11         3.2844    2.1144   -6.5965 C.3       1 <0>        -0.1068
     18 C12         4.1628    1.5692   -5.4681 C.3       1 <0>        -0.1075
     19 H2          5.1018    2.1220   -5.4385 H         1 <0>         0.0832
     20 C13         4.4478    0.0896   -5.7171 C.3       1 <0>         0.1244
     21 C14         3.4345    1.7280   -4.1319 C.3       1 <0>        -0.1528
     22 C15         1.0617    1.9286   -7.7247 C.3       1 <0>        -0.1481
     23 H3          1.0039    1.9031    0.0027 H         1 <0>         0.0553
     24 H4         -0.5459    1.8868   -0.8726 H         1 <0>         0.0586
     25 H5         -0.5289    1.8773    0.9072 H         1 <0>         0.0607
     26 H6          0.5293   -0.3651    0.8851 H         1 <0>         0.0697
     27 H7         -1.0205   -0.3814    0.0098 H         1 <0>         0.0780
     28 H8         -1.0974   -0.7244   -2.3568 H         1 <0>         0.1305
     29 H9          0.0526   -1.5194   -4.3819 H         1 <0>         0.1349
     30 H10         3.8132   -1.1526   -2.4057 H         1 <0>         0.1347
     31 H11         2.3798    0.0441    0.6840 H         1 <0>         0.4001
     32 H12         3.7988   -0.3490   -0.1251 H         1 <0>         0.4006
     33 H13         2.6303   -0.2488   -7.8843 H         1 <0>         0.0768
     34 H14         1.2813   -0.6810   -6.8024 H         1 <0>         0.0904
     35 H15         3.7936    1.9790   -7.5507 H         1 <0>         0.0658
     36 H16         3.0987    3.1757   -6.4317 H         1 <0>         0.0653
     37 H17         4.9867   -0.3255   -4.8654 H         1 <0>         0.0898
     38 H18         5.0492   -0.0167   -6.6199 H         1 <0>         0.0765
     39 H19         2.4962    1.1742   -4.1615 H         1 <0>         0.0631
     40 H20         4.0605    1.3396   -3.3285 H         1 <0>         0.0523
     41 H21         3.2281    2.7834   -3.9538 H         1 <0>         0.0548
     42 H22         0.1143    1.3897   -7.7409 H         1 <0>         0.0583
     43 H23         0.8752    2.9856   -7.5349 H         1 <0>         0.0585
     44 H24         1.5608    1.8148   -8.6870 H         1 <0>         0.0578
@<TRIPOS>BOND
     1    1    2 1
     2    1   23 1
     3    1   24 1
     4    1   25 1
     5    2    3 1
     6    2   26 1
     7    2   27 1
     8    3    8 ar
     9    3    4 ar
    10    4    5 ar
    11    4   28 1
    12    5    6 ar
    13    5   29 1
    14    6    7 ar
    15    6   10 1
    16    7    8 ar
    17    7   30 1
    18    8    9 1
    19    9   31 1
    20    9   32 1
    21   10   11 2
    22   10   12 2
    23   10   13 1
    24   13   20 1
    25   13   14 1
    26   14   15 1
    27   14   33 1
    28   14   34 1
    29   15   16 1
    30   15   17 1
    31   15   22 1
    32   17   18 1
    33   17   35 1
    34   17   36 1
    35   18   19 1
    36   18   20 1
    37   18   21 1
    38   20   37 1
    39   20   38 1
    40   21   39 1
    41   21   40 1
    42   21   41 1
    43   22   42 1
    44   22   43 1
    45   22   44 1
@<TRIPOS>MOLECULE
ZINC40334748
   44    45     0     0     0
SMALL
USER_CHARGES

@<TRIPOS>ATOM
      1 C1         -0.0187    1.5258    0.0104 C.3       1 <0>        -0.1550
      2 C2          0.0021   -0.0041    0.0020 C.3       1 <0>        -0.1207
      3 C3         -1.4333   -0.5336    0.0129 C.3       1 <0>        -0.0871
      4 C4         -2.1107   -0.1436    1.3286 C.3       1 <0>        -0.1307
      5 C5         -3.5581   -0.6454    1.3214 C.3       1 <0>         0.1093
      6 N1         -3.5568   -2.0890    1.0483 N.pl3     1 <0>        -0.9938
      7 C6         -2.8549   -2.5816   -0.1448 C.3       1 <0>         0.1183
      8 C7         -1.4154   -2.0581   -0.1213 C.3       1 <0>        -0.1280
      9 S1         -4.3312   -3.1410    2.0660 S.o2      1 <0>         2.6927
     10 O1         -3.7128   -4.4079    1.8878 O.2       1 <0>        -0.9576
     11 O2         -4.4051   -2.5007    3.3324 O.2       1 <0>        -0.9523
     12 C8         -5.9872   -3.3030    1.4862 C.ar      1 <0>        -0.6250
     13 C9         -6.4362   -4.5202    1.0123 C.ar      1 <0>        -0.1058
     14 C10        -7.7418   -4.6471    0.5559 C.ar      1 <0>         0.1978
     15 C11        -8.5919   -3.5484    0.5777 C.ar      1 <0>        -0.1423
     16 C12        -8.1365   -2.3345    1.0527 C.ar      1 <0>        -0.0576
     17 C13        -6.8374   -2.2129    1.5114 C.ar      1 <0>        -0.0391
     18 C14        -6.3458   -0.8880    2.0349 C.3       1 <0>        -0.1744
     19 C15        -9.0577   -1.1420    1.0763 C.3       1 <0>        -0.1191
     20 N2         -8.1991   -5.8764    0.0757 N.pl3     1 <0>        -0.8770
     21 H1          1.0039    1.9031    0.0027 H         1 <0>         0.0531
     22 H2         -0.5459    1.8868   -0.8726 H         1 <0>         0.0532
     23 H3         -0.5289    1.8773    0.9072 H         1 <0>         0.0569
     24 H4          0.5123   -0.3556   -0.8948 H         1 <0>         0.0625
     25 H5          0.5293   -0.3651    0.8851 H         1 <0>         0.0623
     26 H6         -1.9859   -0.1022   -0.8217 H         1 <0>         0.0731
     27 H7         -1.5732   -0.5951    2.1624 H         1 <0>         0.0700
     28 H8         -2.1023    0.9413    1.4345 H         1 <0>         0.0800
     29 H9         -4.0147   -0.4578    2.2933 H         1 <0>         0.0994
     30 H10        -4.1207   -0.1271    0.5450 H         1 <0>         0.0726
     31 H11        -2.8474   -3.6715   -0.1404 H         1 <0>         0.0935
     32 H12        -3.3601   -2.2212   -1.0409 H         1 <0>         0.0705
     33 H13        -0.9120   -2.3359   -1.0473 H         1 <0>         0.0770
     34 H14        -0.8844   -2.4916    0.7262 H         1 <0>         0.0698
     35 H15        -5.7728   -5.3723    0.9964 H         1 <0>         0.1396
     36 H16        -9.6076   -3.6436    0.2232 H         1 <0>         0.1279
     37 H17        -5.9215   -0.3083    1.2151 H         1 <0>         0.0829
     38 H18        -7.1787   -0.3395    2.4748 H         1 <0>         0.0837
     39 H19        -5.5816   -1.0580    2.7933 H         1 <0>         0.1002
     40 H20        -9.5864   -1.1101    2.0289 H         1 <0>         0.0754
     41 H21        -8.4741   -0.2296    0.9538 H         1 <0>         0.0734
     42 H22        -9.7789   -1.2239    0.2631 H         1 <0>         0.0685
     43 H23        -7.6046   -6.6427    0.0606 H         1 <0>         0.4016
     44 H24        -9.1111   -5.9638   -0.2429 H         1 <0>         0.4004
@<TRIPOS>BOND
     1    1    2 1
     2    1   21 1
     3    1   22 1
     4    1   23 1
     5    2    3 1
     6    2   24 1
     7    2   25 1
     8    3    8 1
     9    3    4 1
    10    3   26 1
    11    4    5 1
    12    4   27 1
    13    4   28 1
    14    5    6 1
    15    5   29 1
    16    5   30 1
    17    6    7 1
    18    6    9 1
    19    7    8 1
    20    7   31 1
    21    7   32 1
    22    8   33 1
    23    8   34 1
    24    9   10 2
    25    9   11 2
    26    9   12 1
    27   12   17 ar
    28   12   13 ar
    29   13   14 ar
    30   13   35 1
    31   14   15 ar
    32   14   20 1
    33   15   16 ar
    34   15   36 1
    35   16   17 ar
    36   16   19 1
    37   17   18 1
    38   18   37 1
    39   18   38 1
    40   18   39 1
    41   19   40 1
    42   19   41 1
    43   19   42 1
    44   20   43 1
    45   20   44 1
@<TRIPOS>MOLECULE
ZINC49370652
   35    37     0     0     0
SMALL
USER_CHARGES

@<TRIPOS>ATOM
      1 C1         -0.0167    1.3777    0.0096 C.ar      1 <0>        -0.1127
      2 C2          1.1709    2.0836    0.0021 C.ar      1 <0>        -0.0783
      3 C3          2.3815    1.4117   -0.0136 C.ar      1 <0>        -0.1029
      4 C4          2.4014    0.0295   -0.0213 C.ar      1 <0>        -0.0802
      5 C5          1.2096   -0.6774   -0.0127 C.ar      1 <0>        -0.0283
      6 C6          0.0021   -0.0041    0.0020 C.ar      1 <0>        -0.1027
      7 Cl1         1.2327   -2.4132   -0.0222 Cl        1 <0>        -0.0718
      8 C7          3.8332   -0.4615   -0.0389 C.3       1 <0>        -0.0838
      9 C8          4.6723    0.7561   -0.4812 C.3       1 <0>        -0.1259
     10 C9          3.7985    1.9439   -0.0253 C.3       1 <0>         0.2039
     11 H1          3.8862    2.7705   -0.7303 H         1 <0>         0.1032
     12 N1          4.1900    2.3768    1.3184 N.am      1 <0>        -0.7335
     13 C10         3.9018    3.6258    1.7347 C.2       1 <0>         0.7089
     14 O1          3.3169    4.3933    0.9951 O.2       1 <0>        -0.5840
     15 N2          4.2620    4.0240    2.9709 N.am      1 <0>        -0.7447
     16 C11         3.9487    5.3817    3.4235 C.3       1 <0>         0.2236
     17 C12         4.4552    5.5718    4.8300 C.2       1 <0>        -0.0427
     18 C13         5.6736    6.0272    5.1726 C.2       1 <0>        -0.1799
     19 C14         5.7216    6.0459    6.5855 C.2       1 <0>        -0.2186
     20 C15         4.5296    5.6009    7.0218 C.2       1 <0>        -0.0260
     21 O2          3.7645    5.3207    5.9542 O.3       1 <0>        -0.1715
     22 H2         -0.9589    1.9053    0.0259 H         1 <0>         0.1348
     23 H3          1.1549    3.1634    0.0081 H         1 <0>         0.1331
     24 H4         -0.9254   -0.5574    0.0084 H         1 <0>         0.1355
     25 H5          4.1339   -0.7863    0.9572 H         1 <0>         0.0852
     26 H6          3.9445   -1.2772   -0.7533 H         1 <0>         0.0852
     27 H7          5.6367    0.7671    0.0268 H         1 <0>         0.0890
     28 H8          4.8030    0.7641   -1.5633 H         1 <0>         0.0936
     29 H9          4.6567    1.7644    1.9085 H         1 <0>         0.3978
     30 H10         4.7287    3.4117    3.5610 H         1 <0>         0.3995
     31 H11         4.4287    6.1044    2.7637 H         1 <0>         0.0999
     32 H12         2.8693    5.5316    3.4026 H         1 <0>         0.0849
     33 H13         6.4639    6.3214    4.4978 H         1 <0>         0.1515
     34 H14         6.5554    6.3575    7.1971 H         1 <0>         0.1518
     35 H15         4.2361    5.4913    8.0554 H         1 <0>         0.2060
@<TRIPOS>BOND
     1    1    6 ar
     2    1    2 ar
     3    1   22 1
     4    2    3 ar
     5    2   23 1
     6    3   10 1
     7    3    4 ar
     8    4    5 ar
     9    4    8 1
    10    5    6 ar
    11    5    7 1
    12    6   24 1
    13    8    9 1
    14    8   25 1
    15    8   26 1
    16    9   10 1
    17    9   27 1
    18    9   28 1
    19   10   11 1
    20   10   12 1
    21   12   13 am
    22   12   29 1
    23   13   14 2
    24   13   15 am
    25   15   16 1
    26   15   30 1
    27   16   17 1
    28   16   31 1
    29   16   32 1
    30   17   21 1
    31   17   18 2
    32   18   19 1
    33   18   33 1
    34   19   20 2
    35   19   34 1
    36   20   21 1
    37   20   35 1
@<TRIPOS>MOLECULE
ZINC06678335
   40    42     0     0     0
SMALL
USER_CHARGES

@<TRIPOS>ATOM
      1 C1         -0.4894    1.3235   -0.1099 C.3       1 <0>        -0.1479
      2 C2         -0.5305   -0.1984    0.0417 C.3       1 <0>        -0.0883
      3 C3          0.2362   -0.6013    1.2749 C.ar      1 <0>        -0.0727
      4 C4          1.5891   -0.8725    1.1899 C.ar      1 <0>        -0.1155
      5 C5          2.2923   -1.2420    2.3212 C.ar      1 <0>        -0.0999
      6 C6          1.6428   -1.3400    3.5375 C.ar      1 <0>        -0.0626
      7 C7          0.2902   -1.0680    3.6227 C.ar      1 <0>        -0.0970
      8 C8         -0.4122   -0.6943    2.4922 C.ar      1 <0>        -0.1150
      9 C9          2.4093   -1.7439    4.7706 C.3       1 <0>         0.0571
     10 H1          3.4737   -1.7434    4.5358 H         1 <0>         0.1020
     11 C10         2.0031   -3.1319    5.1555 C.2       1 <0>        -0.2472
     12 C11         1.4873   -4.0479    4.2145 C.2       1 <0>         0.1230
     13 N1          1.2197   -5.1667    4.8248 N.2       1 <0>        -0.2658
     14 N2          1.5497   -5.0161    6.1714 N.pl3     1 <0>        -0.4972
     15 H2          1.4513   -5.6929    6.8593 H         1 <0>         0.4422
     16 C12         2.0362   -3.7495    6.3565 C.2       1 <0>         0.3389
     17 N3          2.4505   -3.3233    7.5959 N.am      1 <0>        -0.6262
     18 C13         2.8976   -2.2031    8.0787 C.2       1 <0>         0.5457
     19 O1          3.0619   -2.1953    9.2804 O.2       1 <0>        -0.5262
     20 C14         3.2385   -0.9367    7.3967 C.3       1 <0>        -0.0912
     21 H3          3.2210   -0.1286    8.1280 H         1 <0>         0.1571
     22 S1          2.1035   -0.5343    6.0608 S.3       1 <0>        -0.1774
     23 C15         4.6525   -1.0508    6.8236 C.3       1 <0>        -0.1499
     24 C16         1.2799   -3.7765    2.7467 C.3       1 <0>        -0.1064
     25 H4          0.5459    1.6516   -0.2023 H         1 <0>         0.0563
     26 H5         -1.0439    1.6149   -1.0019 H         1 <0>         0.0586
     27 H6         -0.9410    1.7882    0.7667 H         1 <0>         0.0562
     28 H7         -1.5658   -0.5266    0.1341 H         1 <0>         0.0729
     29 H8         -0.0789   -0.6631   -0.8348 H         1 <0>         0.0735
     30 H9          2.0965   -0.7959    0.2396 H         1 <0>         0.1264
     31 H10         3.3491   -1.4546    2.2546 H         1 <0>         0.1262
     32 H11        -0.2173   -1.1449    4.5729 H         1 <0>         0.1265
     33 H12        -1.4682   -0.4781    2.5595 H         1 <0>         0.1249
     34 H13         2.3961   -4.0219    8.2666 H         1 <0>         0.4052
     35 H14         4.6906   -1.8756    6.1120 H         1 <0>         0.0631
     36 H15         4.9155   -0.1219    6.3177 H         1 <0>         0.0914
     37 H16         5.3587   -1.2363    7.6330 H         1 <0>         0.0783
     38 H17         2.2429   -3.7842    2.2362 H         1 <0>         0.0813
     39 H18         0.6372   -4.5476    2.3219 H         1 <0>         0.0714
     40 H19         0.8095   -2.8014    2.6204 H         1 <0>         0.1083
@<TRIPOS>BOND
     1    1    2 1
     2    1   25 1
     3    1   26 1
     4    1   27 1
     5    2    3 1
     6    2   28 1
     7    2   29 1
     8    3    8 ar
     9    3    4 ar
    10    4    5 ar
    11    4   30 1
    12    5    6 ar
    13    5   31 1
    14    6    7 ar
    15    6    9 1
    16    7    8 ar
    17    7   32 1
    18    8   33 1
    19    9   10 1
    20    9   22 1
    21    9   11 1
    22   11   16 2
    23   11   12 1
    24   12   13 2
    25   12   24 1
    26   13   14 1
    27   14   15 1
    28   14   16 1
    29   16   17 1
    30   17   18 am
    31   17   34 1
    32   18   19 2
    33   18   20 1
    34   20   21 1
    35   20   22 1
    36   20   23 1
    37   23   35 1
    38   23   36 1
    39   23   37 1
    40   24   38 1
    41   24   39 1
    42   24   40 1
@<TRIPOS>MOLECULE
ZINC04308853
   43    45     0     0     0
SMALL
USER_CHARGES
6-methyl-2-(o-tolylmethyl)-2,4-diazaspiro[4.5]decane-1,3-dione
@<TRIPOS>ATOM
      1 C1         -5.1954    5.5389    3.6204 C.3       1 <0>        -0.1209
      2 C2         -3.9465    5.9900    2.9077 C.ar      1 <0>        -0.0749
      3 C3         -3.4846    7.2825    3.0734 C.ar      1 <0>        -0.1153
      4 C4         -2.3390    7.6960    2.4201 C.ar      1 <0>        -0.1138
      5 C5         -1.6549    6.8171    1.6010 C.ar      1 <0>        -0.1204
      6 C6         -2.1137    5.5234    1.4394 C.ar      1 <0>        -0.1106
      7 C7         -3.2627    5.1114    2.0888 C.ar      1 <0>        -0.1046
      8 C8         -3.7659    3.7023    1.9085 C.3       1 <0>         0.1609
      9 N1         -2.7837    2.9267    1.1470 N.am      1 <0>        -0.5773
     10 C9         -1.8411    2.1397    1.7057 C.2       1 <0>         0.5352
     11 O1         -1.6522    1.9467    2.8876 O.2       1 <0>        -0.4512
     12 C10        -1.0700    1.5492    0.5474 C.3       1 <0>         0.1266
     13 C11        -1.1919    0.0293    0.5478 C.3       1 <0>        -0.1123
     14 C12        -0.5431   -0.5356    1.8141 C.3       1 <0>        -0.1284
     15 C13         0.9302   -0.1249    1.8574 C.3       1 <0>        -0.1180
     16 C14         1.0363    1.4013    1.8779 C.3       1 <0>        -0.1241
     17 C15         0.3932    1.9733    0.6119 C.3       1 <0>        -0.0818
     18 H1          0.9195    1.5963   -0.2650 H         1 <0>         0.0932
     19 C16         0.4805    3.5005    0.6411 C.3       1 <0>        -0.1627
     20 N2         -1.7194    2.1179   -0.6403 N.am      1 <0>        -0.7199
     21 C17        -2.7103    2.9109   -0.1896 C.2       1 <0>         0.7008
     22 O2         -3.4543    3.5415   -0.9149 O.2       1 <0>        -0.5338
     23 H2         -4.9230    5.0412    4.5511 H         1 <0>         0.0749
     24 H3         -5.8207    6.4042    3.8406 H         1 <0>         0.0709
     25 H4         -5.7459    4.8452    2.9849 H         1 <0>         0.0680
     26 H5         -4.0188    7.9689    3.7136 H         1 <0>         0.1257
     27 H6         -1.9779    8.7056    2.5498 H         1 <0>         0.1240
     28 H7         -0.7594    7.1402    1.0908 H         1 <0>         0.1217
     29 H8         -1.5769    4.8355    0.8031 H         1 <0>         0.1176
     30 H9         -4.7123    3.7209    1.3680 H         1 <0>         0.1087
     31 H10        -3.9143    3.2418    2.8852 H         1 <0>         0.1100
     32 H11        -2.2450   -0.2506    0.5234 H         1 <0>         0.0736
     33 H12        -0.6880   -0.3756   -0.3299 H         1 <0>         0.0865
     34 H13        -1.0560   -0.1422    2.6918 H         1 <0>         0.0808
     35 H14        -0.6174   -1.6230    1.8066 H         1 <0>         0.0732
     36 H15         1.3947   -0.5332    2.7549 H         1 <0>         0.0695
     37 H16         1.4411   -0.5122    0.9759 H         1 <0>         0.0636
     38 H17         0.5195    1.7898    2.7555 H         1 <0>         0.0815
     39 H18         2.0861    1.6922    1.9156 H         1 <0>         0.0731
     40 H19        -0.1012    3.8817    1.4804 H         1 <0>         0.0574
     41 H20         1.5217    3.8028    0.7536 H         1 <0>         0.0715
     42 H21         0.0832    3.9050   -0.2898 H         1 <0>         0.0606
     43 H22        -1.4818    1.9547   -1.5665 H         1 <0>         0.4405
@<TRIPOS>BOND
     1    1    2 1
     2    1   23 1
     3    1   24 1
     4    1   25 1
     5    2    7 ar
     6    2    3 ar
     7    3    4 ar
     8    3   26 1
     9    4    5 ar
    10    4   27 1
    11    5    6 ar
    12    5   28 1
    13    6    7 ar
    14    6   29 1
    15    7    8 1
    16    8    9 1
    17    8   30 1
    18    8   31 1
    19    9   21 am
    20    9   10 am
    21   10   11 2
    22   10   12 1
    23   12   17 1
    24   12   13 1
    25   12   20 1
    26   13   14 1
    27   13   32 1
    28   13   33 1
    29   14   15 1
    30   14   34 1
    31   14   35 1
    32   15   16 1
    33   15   36 1
    34   15   37 1
    35   16   17 1
    36   16   38 1
    37   16   39 1
    38   17   18 1
    39   17   19 1
    40   19   40 1
    41   19   41 1
    42   19   42 1
    43   20   21 am
    44   20   43 1
    45   21   22 2
@<TRIPOS>MOLECULE
ZINC37102953
   18    18     0     0     0
SMALL
USER_CHARGES

@<TRIPOS>ATOM
      1 C1         -0.0184    1.5028    0.0103 C.3       1 <0>        -0.1172
      2 C2          0.0021   -0.0041    0.0020 C.ar      1 <0>        -0.0869
      3 C3          0.0057   -0.6877   -1.2000 C.ar      1 <0>        -0.0283
      4 C4          0.0240   -2.0689   -1.2106 C.ar      1 <0>        -0.0726
      5 C5          0.0391   -2.7706   -0.0139 C.ar      1 <0>         0.2047
      6 C6          0.0359   -2.0825    1.1911 C.ar      1 <0>        -0.1418
      7 C7          0.0229   -0.7004    1.1961 C.ar      1 <0>        -0.0230
      8 I1          0.0581   -3.1374    3.0010 I         1 <0>         0.0145
      9 O1          0.0567   -4.1295   -0.0218 O.3       1 <0>        -0.4618
     10 N1          0.0268   -2.7997   -2.4977 N.pl3     1 <0>         0.0355
     11 O2          0.0132   -2.1877   -3.5403 O.2       1 <0>        -0.1618
     12 O3          0.0428   -4.0085   -2.5064 O.3       1 <0>        -0.1306
     13 H1          1.0042    1.8801    0.0026 H         1 <0>         0.0843
     14 H2         -0.5455    1.8639   -0.8728 H         1 <0>         0.0798
     15 H3         -0.5286    1.8543    0.9071 H         1 <0>         0.0797
     16 H4         -0.0061   -0.1412   -2.1315 H         1 <0>         0.1638
     17 H5          0.0248   -0.1641    2.1335 H         1 <0>         0.1531
     18 H6          0.9450   -4.5114   -0.0286 H         1 <0>         0.4088
@<TRIPOS>BOND
     1    1    2 1
     2    1   13 1
     3    1   14 1
     4    1   15 1
     5    2    7 ar
     6    2    3 ar
     7    3    4 ar
     8    3   16 1
     9    4    5 ar
    10    4   10 1
    11    5    6 ar
    12    5    9 1
    13    6    7 ar
    14    6    8 1
    15    7   17 1
    16    9   18 1
    17   10   11 2
    18   10   12 1
@<TRIPOS>MOLECULE
ZINC49049400
   37    38     0     0     0
SMALL
USER_CHARGES

@<TRIPOS>ATOM
      1 C1         -0.0125    1.5294    0.0048 C.3       1 <0>        -0.1437
      2 C2          0.0040   -0.0005   -0.0021 C.3       1 <0>         0.0744
      3 H1         -1.0194   -0.3757    0.0033 H         1 <0>         0.0654
      4 C3          0.7256   -0.4992   -1.2593 C.3       1 <0>         0.0994
      5 N1          0.8931   -1.9571   -1.1508 N.am      1 <0>        -0.6323
      6 C4          1.4775   -2.4959    0.0876 C.3       1 <0>         0.0884
      7 C5          0.7193   -1.9000    1.2792 C.3       1 <0>         0.1249
      8 H2         -0.3012   -2.2828    1.2896 H         1 <0>         0.0725
      9 O1          0.6929   -0.4759    1.1570 O.3       1 <0>        -0.3660
     10 C6          1.4139   -2.2834    2.5604 C.ar      1 <0>        -0.0895
     11 C7          2.4690   -1.5231    3.0289 C.ar      1 <0>        -0.0885
     12 C8          3.1061   -1.8748    4.2042 C.ar      1 <0>        -0.1219
     13 C9          2.6878   -2.9866    4.9112 C.ar      1 <0>        -0.1131
     14 C10         1.6321   -3.7464    4.4432 C.ar      1 <0>        -0.1202
     15 C11         0.9922   -3.3922    3.2701 C.ar      1 <0>        -0.1078
     16 C12         0.5219   -2.7748   -2.1558 C.2       1 <0>         0.7129
     17 O2         -0.0458   -2.3210   -3.1306 O.2       1 <0>        -0.5814
     18 N2          0.7798   -4.0955   -2.0802 N.am      1 <0>        -0.7451
     19 C13         0.4755   -4.9675   -3.2174 C.3       1 <0>         0.2491
     20 C14         0.8468   -6.3529   -2.8865 C.1       1 <0>        -0.2160
     21 C15         1.1429   -7.4579   -2.6226 C.1       1 <0>        -0.1616
     22 H3          1.0112    1.9038   -0.0005 H         1 <0>         0.0675
     23 H4         -0.5363    1.8911   -0.8800 H         1 <0>         0.0773
     24 H5         -0.5241    1.8832    0.8999 H         1 <0>         0.0695
     25 H6          0.1313   -0.2626   -2.1418 H         1 <0>         0.1064
     26 H7          1.7026   -0.0220   -1.3354 H         1 <0>         0.0772
     27 H8          1.3812   -3.5816    0.0969 H         1 <0>         0.0869
     28 H9          2.5303   -2.2198    0.1471 H         1 <0>         0.0829
     29 H10         2.7958   -0.6545    2.4766 H         1 <0>         0.1286
     30 H11         3.9309   -1.2812    4.5699 H         1 <0>         0.1246
     31 H12         3.1860   -3.2618    5.8290 H         1 <0>         0.1236
     32 H13         1.3055   -4.6152    4.9953 H         1 <0>         0.1251
     33 H14         0.1650   -3.9837    2.9064 H         1 <0>         0.1224
     34 H15         1.1670   -4.4686   -1.2729 H         1 <0>         0.3988
     35 H16        -0.5911   -4.9197   -3.4367 H         1 <0>         0.0935
     36 H17         1.0408   -4.6382   -4.0893 H         1 <0>         0.0924
     37 H18         1.4077   -8.4461   -2.3865 H         1 <0>         0.2234
@<TRIPOS>BOND
     1    1    2 1
     2    1   22 1
     3    1   23 1
     4    1   24 1
     5    2    3 1
     6    2    9 1
     7    2    4 1
     8    4    5 1
     9    4   25 1
    10    4   26 1
    11    5    6 1
    12    5   16 am
    13    6    7 1
    14    6   27 1
    15    6   28 1
    16    7    8 1
    17    7    9 1
    18    7   10 1
    19   10   15 ar
    20   10   11 ar
    21   11   12 ar
    22   11   29 1
    23   12   13 ar
    24   12   30 1
    25   13   14 ar
    26   13   31 1
    27   14   15 ar
    28   14   32 1
    29   15   33 1
    30   16   17 2
    31   16   18 am
    32   18   19 1
    33   18   34 1
    34   19   20 1
    35   19   35 1
    36   19   36 1
    37   20   21 3
    38   21   37 1
@<TRIPOS>MOLECULE
ZINC02766485
   34    35     0     0     0
SMALL
USER_CHARGES

@<TRIPOS>ATOM
      1 C1         -0.0187    1.5258    0.0104 C.3       1 <0>        -0.1490
      2 C2          0.0021   -0.0041    0.0020 C.3       1 <0>        -0.0711
      3 C3          0.7421   -0.5109    1.2415 C.3       1 <0>        -0.1459
      4 C4         -1.4333   -0.5336    0.0129 C.3       1 <0>        -0.1469
      5 C5          0.7182   -0.4975   -1.2568 C.3       1 <0>         0.1598
      6 H1          0.7345   -1.5873   -1.2655 H         1 <0>         0.0885
      7 C6         -0.0145    0.0167   -2.5013 C.3       1 <0>        -0.1628
      8 C7          0.6671   -0.5208   -3.7648 C.3       1 <0>         0.1298
      9 H2          0.4854   -1.5922   -3.8500 H         1 <0>         0.1364
     10 N1          2.1092   -0.2734   -3.6673 N.pl3     1 <0>        -0.4002
     11 C8          2.7505   -0.0208   -2.5004 C.2       1 <0>         0.4318
     12 C9          4.0884    0.1633   -2.7904 C.2       1 <0>        -0.2444
     13 C10         4.2281    0.0084   -4.1922 C.2       1 <0>         0.1367
     14 N2          3.0504   -0.2495   -4.6950 N.2       1 <0>        -0.2810
     15 C11         5.1329    0.4546   -1.8550 C.1       1 <0>         0.2947
     16 N3          5.9614    0.6857   -1.1130 N.1       1 <0>        -0.4391
     17 N4          2.1008    0.0195   -1.2758 N.pl3     1 <0>        -0.7113
     18 C12         0.1038    0.1940   -4.9946 C.3       1 <0>         0.4570
     19 F1          0.3431    1.5681   -4.8857 F         1 <0>        -0.1724
     20 F2          0.7271   -0.2981   -6.1463 F         1 <0>        -0.1582
     21 F3         -1.2741   -0.0343   -5.0764 F         1 <0>        -0.1724
     22 H3          1.0039    1.9031    0.0027 H         1 <0>         0.0580
     23 H4         -0.5459    1.8868   -0.8726 H         1 <0>         0.0611
     24 H5         -0.5289    1.8773    0.9072 H         1 <0>         0.0651
     25 H6          0.2319   -0.1594    2.1383 H         1 <0>         0.0672
     26 H7          0.7568   -1.6008    1.2356 H         1 <0>         0.0625
     27 H8          1.7647   -0.1336    1.2338 H         1 <0>         0.0549
     28 H9         -1.9605   -0.1726   -0.8702 H         1 <0>         0.0627
     29 H10        -1.4185   -1.6235    0.0069 H         1 <0>         0.0629
     30 H11        -1.9435   -0.1821    0.9097 H         1 <0>         0.0681
     31 H12        -1.0506   -0.3209   -2.4770 H         1 <0>         0.1255
     32 H13         0.0103    1.1064   -2.5119 H         1 <0>         0.1040
     33 H14         5.1498    0.0896   -4.7491 H         1 <0>         0.2017
     34 H15         2.5280    0.3701   -0.4787 H         1 <0>         0.4264
@<TRIPOS>BOND
     1    1    2 1
     2    1   22 1
     3    1   23 1
     4    1   24 1
     5    2    3 1
     6    2    4 1
     7    2    5 1
     8    3   25 1
     9    3   26 1
    10    3   27 1
    11    4   28 1
    12    4   29 1
    13    4   30 1
    14    5    6 1
    15    5   17 1
    16    5    7 1
    17    7    8 1
    18    7   31 1
    19    7   32 1
    20    8    9 1
    21    8   10 1
    22    8   18 1
    23   10   14 1
    24   10   11 1
    25   11   12 2
    26   11   17 1
    27   12   13 1
    28   12   15 1
    29   13   14 2
    30   13   33 1
    31   15   16 3
    32   17   34 1
    33   18   19 1
    34   18   20 1
    35   18   21 1
@<TRIPOS>MOLECULE
ZINC62754098
   44    46     0     0     0
SMALL
USER_CHARGES

@<TRIPOS>ATOM
      1 C1         -0.1873    1.5515   -0.0935 C.3       1 <0>        -0.1241
      2 C2          0.9729    2.4926   -0.2735 C.3       1 <0>        -0.1260
      3 C3          1.4211    2.6015   -1.7435 C.3       1 <0>        -0.0962
      4 C4          1.4397    1.2403   -2.4649 C.3       1 <0>        -0.1829
      5 H1          0.4207    0.9780   -2.7493 H         1 <0>         0.0900
      6 C5          2.0037    0.1410   -1.6059 C.3       1 <0>         0.0572
      7 H2          2.6783    0.5665   -0.8630 H         1 <0>         0.1232
      8 C6          0.8358   -0.5740   -0.8961 C.3       1 <0>        -0.2024
      9 C7          0.3640    0.1577    0.2703 C.3       1 <0>        -0.1138
     10 N1          2.7355   -0.8159   -2.4466 N.4       1 <0>        -0.3556
     11 C8          3.9728   -0.1927   -2.9598 C.3       1 <0>        -0.0964
     12 C9          4.8114   -1.1846   -3.7605 C.3       1 <0>         0.0485
     13 O1          5.0361   -2.4009   -3.0248 O.3       1 <0>        -0.3558
     14 C10         3.8060   -2.9791   -2.6241 C.3       1 <0>         0.0694
     15 H3          3.1691   -3.1525   -3.4915 H         1 <0>         0.0860
     16 C11         3.1373   -1.9671   -1.6536 C.3       1 <0>        -0.0302
     17 H4          3.8540   -1.6580   -0.8928 H         1 <0>         0.1377
     18 C12         2.0226   -2.7832   -1.0078 C.3       1 <0>        -0.1346
     19 C13         2.5274   -4.2474   -1.0154 C.3       1 <0>        -0.1246
     20 C14         3.8950   -4.2459   -1.7668 C.3       1 <0>        -0.1112
     21 C15         2.2776    1.3606   -3.7117 C.2       1 <0>         0.4896
     22 O2          3.0585    2.2889   -3.8341 O.co2     1 <0>        -0.6481
     23 O3          2.1746    0.5297   -4.5980 O.co2     1 <0>        -0.6931
     24 H5         -0.8301    1.9120    0.7096 H         1 <0>         0.0668
     25 H6         -0.7559    1.4896   -1.0215 H         1 <0>         0.0688
     26 H7          0.6830    3.4817    0.0810 H         1 <0>         0.0650
     27 H8          1.8114    2.1372    0.3255 H         1 <0>         0.0562
     28 H9          0.7394    3.2692   -2.2703 H         1 <0>         0.0667
     29 H10         2.4231    3.0295   -1.7747 H         1 <0>         0.0817
     30 H11         0.0109   -0.6866   -1.5996 H         1 <0>         0.0814
     31 H12         1.1668   -1.5638   -0.5817 H         1 <0>         0.1356
     32 H13         1.1909    0.2769    0.9704 H         1 <0>         0.0643
     33 H14        -0.4248   -0.4189    0.7534 H         1 <0>         0.0736
     34 H15         3.7082    0.6483   -3.6007 H         1 <0>         0.2196
     35 H16         4.5617    0.1738   -2.1190 H         1 <0>         0.1108
     36 H17         4.2927   -1.4210   -4.6895 H         1 <0>         0.0836
     37 H18         5.7729   -0.7287   -3.9969 H         1 <0>         0.1319
     38 H19         1.8533   -2.4476    0.0153 H         1 <0>         0.1120
     39 H20         1.1056   -2.6971   -1.5907 H         1 <0>         0.0969
     40 H21         2.6552   -4.6044    0.0065 H         1 <0>         0.0867
     41 H22         1.8215   -4.8838   -1.5491 H         1 <0>         0.0832
     42 H23         4.0018   -5.1299   -2.3955 H         1 <0>         0.0934
     43 H24         4.7195   -4.1741   -1.0576 H         1 <0>         0.0882
     44 H25         2.1538   -1.1134   -3.2155 H         1 <0>         0.4272
@<TRIPOS>BOND
     1    1    9 1
     2    1    2 1
     3    1   24 1
     4    1   25 1
     5    2    3 1
     6    2   26 1
     7    2   27 1
     8    3    4 1
     9    3   28 1
    10    3   29 1
    11    4    5 1
    12    4    6 1
    13    4   21 1
    14    6    7 1
    15    6    8 1
    16    6   10 1
    17    8    9 1
    18    8   30 1
    19    8   31 1
    20    9   32 1
    21    9   33 1
    22   10   16 1
    23   10   11 1
    24   10   44 1
    25   11   12 1
    26   11   34 1
    27   11   35 1
    28   12   13 1
    29   12   36 1
    30   12   37 1
    31   13   14 1
    32   14   15 1
    33   14   20 1
    34   14   16 1
    35   16   17 1
    36   16   18 1
    37   18   19 1
    38   18   38 1
    39   18   39 1
    40   19   20 1
    41   19   40 1
    42   19   41 1
    43   20   42 1
    44   20   43 1
    45   21   22 2
    46   21   23 1
@<TRIPOS>MOLECULE
ZINC00375053
   45    47     0     0     0
SMALL
USER_CHARGES
N-(2-furylmethyleneamino)-6-tert-butyl-4,5,6,7-tetrahydrobenzothiophene-3-carboxamide
@<TRIPOS>ATOM
      1 C1          2.1626    1.1127    1.2367 C.3       1 <0>        -0.1456
      2 C2          1.4217    1.6181   -0.0028 C.3       1 <0>        -0.0625
      3 C3          2.1388    1.1261   -1.2616 C.3       1 <0>        -0.1455
      4 C4          1.3980    3.1479    0.0056 C.3       1 <0>        -0.1484
      5 C5         -0.0127    1.0858    0.0080 C.3       1 <0>        -0.0704
      6 H1          0.0021   -0.0041    0.0020 H         1 <0>         0.0767
      7 C6         -0.7587    1.5958   -1.2283 C.3       1 <0>        -0.1215
      8 C7         -2.1048    0.8750   -1.3558 C.3       1 <0>        -0.0567
      9 C8         -2.8517    0.9902   -0.0330 C.2       1 <0>        -0.0698
     10 C9         -4.2792    0.7760    0.1121 C.2       1 <0>        -0.1629
     11 C10        -4.8258    0.9147    1.3690 C.2       1 <0>        -0.1836
     12 S1         -3.4597    1.3255    2.3527 S.3       1 <0>         0.1422
     13 C11        -2.2001    1.3092    1.1088 C.2       1 <0>        -0.1667
     14 C12        -0.7370    1.5838    1.2674 C.3       1 <0>        -0.0384
     15 C13        -5.1161    0.4227   -1.0457 C.2       1 <0>         0.5905
     16 O1         -4.6126    0.3058   -2.1473 O.2       1 <0>        -0.4887
     17 N1         -6.4402    0.2286   -0.8859 N.am      1 <0>        -0.5794
     18 N2         -7.2369   -0.1078   -1.9882 N.2       1 <0>        -0.2097
     19 C14        -8.5149   -0.2951   -1.8339 C.2       1 <0>         0.1336
     20 C15        -9.3486   -0.6471   -2.9874 C.2       1 <0>         0.0154
     21 C16       -10.6949   -0.8702   -2.9653 C.2       1 <0>        -0.1597
     22 C17       -11.0761   -1.1755   -4.2850 C.2       1 <0>        -0.2187
     23 C18        -9.9607   -1.1254   -5.0415 C.2       1 <0>        -0.0149
     24 O2         -8.9205   -0.8014   -4.2564 O.3       1 <0>        -0.1563
     25 H2          2.1795    0.0228    1.2307 H         1 <0>         0.0553
     26 H3          3.1845    1.4919    1.2290 H         1 <0>         0.0559
     27 H4          1.6517    1.4632    2.1335 H         1 <0>         0.0565
     28 H5          1.6109    1.4862   -2.1447 H         1 <0>         0.0601
     29 H6          3.1606    1.5053   -1.2693 H         1 <0>         0.0556
     30 H7          2.1556    0.0362   -1.2676 H         1 <0>         0.0553
     31 H8          0.8871    3.4985    0.9024 H         1 <0>         0.0573
     32 H9          2.4199    3.5271   -0.0021 H         1 <0>         0.0551
     33 H10         0.8702    3.5080   -0.8774 H         1 <0>         0.0589
     34 H11        -0.9314    2.6675   -1.1304 H         1 <0>         0.0668
     35 H12        -0.1572    1.4071   -2.1175 H         1 <0>         0.0767
     36 H13        -1.9342   -0.1760   -1.5889 H         1 <0>         0.0783
     37 H14        -2.6940    1.3344   -2.1494 H         1 <0>         0.0920
     38 H15        -5.8566    0.7960    1.6688 H         1 <0>         0.1888
     39 H16        -0.3570    1.0564    2.1423 H         1 <0>         0.0839
     40 H17        -0.5745    2.6552    1.3851 H         1 <0>         0.0905
     41 H18        -6.8415    0.3218   -0.0078 H         1 <0>         0.3852
     42 H19        -8.9618   -0.1914   -0.8562 H         1 <0>         0.1480
     43 H20       -11.3423   -0.8215   -2.1023 H         1 <0>         0.1572
     44 H21       -12.0739   -1.4066   -4.6275 H         1 <0>         0.1555
     45 H22        -9.9126   -1.3114   -6.1043 H         1 <0>         0.2081
@<TRIPOS>BOND
     1    1    2 1
     2    1   25 1
     3    1   26 1
     4    1   27 1
     5    2    3 1
     6    2    4 1
     7    2    5 1
     8    3   28 1
     9    3   29 1
    10    3   30 1
    11    4   31 1
    12    4   32 1
    13    4   33 1
    14    5    6 1
    15    5   14 1
    16    5    7 1
    17    7    8 1
    18    7   34 1
    19    7   35 1
    20    8    9 1
    21    8   36 1
    22    8   37 1
    23    9   13 2
    24    9   10 1
    25   10   11 2
    26   10   15 1
    27   11   12 1
    28   11   38 1
    29   12   13 1
    30   13   14 1
    31   14   39 1
    32   14   40 1
    33   15   16 2
    34   15   17 am
    35   17   18 1
    36   17   41 1
    37   18   19 2
    38   19   20 1
    39   19   42 1
    40   20   24 1
    41   20   21 2
    42   21   22 1
    43   21   43 1
    44   22   23 2
    45   22   44 1
    46   23   24 1
    47   23   45 1
@<TRIPOS>MOLECULE
ZINC11635041
   51    53     0     0     0
SMALL
USER_CHARGES
N-[(8S)-8-tert-butyl-3-methyl-6,7,8,9-tetrahydrodibenzofuran-2-yl]ethanesulfonamide
@<TRIPOS>ATOM
      1 C1         -4.7706    5.0187   -0.9555 C.3       1 <0>        -0.1471
      2 C2         -3.5813    4.1097   -0.6388 C.3       1 <0>        -0.6253
      3 S1         -4.1789    2.4346   -0.2817 S.o2      1 <0>         2.6023
      4 O1         -4.7184    1.8464   -1.4574 O.2       1 <0>        -0.9478
      5 O2         -4.9128    2.4257    0.9350 O.2       1 <0>        -0.9447
      6 N1         -2.8133    1.5556    0.0421 N.pl3     1 <0>        -1.0517
      7 C3         -1.9806    1.9227    1.1050 C.ar      1 <0>         0.1341
      8 C4         -2.5292    2.4401    2.2649 C.ar      1 <0>        -0.1250
      9 C5         -1.6932    2.8092    3.3179 C.ar      1 <0>        -0.0936
     10 C6         -0.3004    2.6503    3.2012 C.ar      1 <0>         0.0446
     11 C7          0.2314    2.1243    2.0313 C.ar      1 <0>        -0.0839
     12 C8         -0.6012    1.7617    0.9952 C.ar      1 <0>        -0.0775
     13 C9         -0.0142    1.1916   -0.2703 C.3       1 <0>        -0.1164
     14 O3          0.2522    3.0835    4.3549 O.3       1 <0>        -0.1892
     15 C10        -0.6915    3.5122    5.2084 C.2       1 <0>         0.0363
     16 C11        -1.9052    3.3767    4.6478 C.2       1 <0>        -0.1729
     17 C12        -3.2058    3.7537    5.3058 C.3       1 <0>        -0.0493
     18 C13        -2.8988    4.6666    6.4998 C.3       1 <0>        -0.0777
     19 H1         -2.5593    5.6372    6.1381 H         1 <0>         0.0757
     20 C14        -1.8015    4.0275    7.3557 C.3       1 <0>        -0.1174
     21 C15        -0.4706    4.0685    6.5967 C.3       1 <0>        -0.0419
     22 C16        -4.1630    4.8482    7.3423 C.3       1 <0>        -0.0625
     23 C17        -4.6368    3.4853    7.8514 C.3       1 <0>        -0.1491
     24 C18        -3.8560    5.7588    8.5329 C.3       1 <0>        -0.1453
     25 C19        -5.2605    5.4820    6.4851 C.3       1 <0>        -0.1463
     26 H2         -5.3036    4.6304   -1.8234 H         1 <0>         0.0740
     27 H3         -5.4438    5.0480   -0.0988 H         1 <0>         0.0743
     28 H4         -4.4115    6.0252   -1.1700 H         1 <0>         0.0857
     29 H5         -3.0483    4.4980    0.2291 H         1 <0>         0.1341
     30 H6         -2.9081    4.0804   -1.4955 H         1 <0>         0.1356
     31 H7         -2.5906    0.7862   -0.5051 H         1 <0>         0.4278
     32 H8         -3.5988    2.5607    2.3528 H         1 <0>         0.1662
     33 H9          1.2996    1.9988    1.9335 H         1 <0>         0.1380
     34 H10         0.0522    0.1071   -0.1836 H         1 <0>         0.0778
     35 H11         0.9820    1.6052   -0.4272 H         1 <0>         0.0758
     36 H12        -0.6522    1.4501   -1.1154 H         1 <0>         0.0704
     37 H13        -3.8373    4.2834    4.5925 H         1 <0>         0.0791
     38 H14        -3.7147    2.8547    5.6533 H         1 <0>         0.0833
     39 H15        -1.7032    4.5786    8.2910 H         1 <0>         0.0854
     40 H16        -2.0653    2.9919    7.5703 H         1 <0>         0.0738
     41 H17         0.2682    3.4622    7.1208 H         1 <0>         0.0890
     42 H18        -0.1202    5.0983    6.5270 H         1 <0>         0.0913
     43 H19        -3.8549    3.0338    8.4620 H         1 <0>         0.0576
     44 H20        -5.5374    3.6147    8.4515 H         1 <0>         0.0549
     45 H21        -4.8554    2.8366    7.0031 H         1 <0>         0.0595
     46 H22        -3.5185    6.7297    8.1702 H         1 <0>         0.0549
     47 H23        -4.7567    5.8881    9.1331 H         1 <0>         0.0556
     48 H24        -3.0742    5.3072    9.1436 H         1 <0>         0.0587
     49 H25        -5.4791    4.8333    5.6369 H         1 <0>         0.0592
     50 H26        -6.1611    5.6114    7.0853 H         1 <0>         0.0555
     51 H27        -4.9230    6.4529    6.1224 H         1 <0>         0.0545
@<TRIPOS>BOND
     1    1    2 1
     2    1   26 1
     3    1   27 1
     4    1   28 1
     5    2    3 1
     6    2   29 1
     7    2   30 1
     8    3    4 2
     9    3    5 2
    10    3    6 1
    11    6    7 1
    12    6   31 1
    13    7   12 ar
    14    7    8 ar
    15    8    9 ar
    16    8   32 1
    17    9   16 1
    18    9   10 ar
    19   10   11 ar
    20   10   14 1
    21   11   12 ar
    22   11   33 1
    23   12   13 1
    24   13   34 1
    25   13   35 1
    26   13   36 1
    27   14   15 1
    28   15   21 1
    29   15   16 2
    30   16   17 1
    31   17   18 1
    32   17   37 1
    33   17   38 1
    34   18   19 1
    35   18   20 1
    36   18   22 1
    37   20   21 1
    38   20   39 1
    39   20   40 1
    40   21   41 1
    41   21   42 1
    42   22   23 1
    43   22   24 1
    44   22   25 1
    45   23   43 1
    46   23   44 1
    47   23   45 1
    48   24   46 1
    49   24   47 1
    50   24   48 1
    51   25   49 1
    52   25   50 1
    53   25   51 1
@<TRIPOS>MOLECULE
ZINC20708041
   44    48     0     0     0
SMALL
USER_CHARGES
(3aS,4S,9bR)-4-(2-naphthyl)-6-nitro-3a,4,5,9b-tetrahydro-3H-cyclopenta[c]quinoline
@<TRIPOS>ATOM
      1 C1          2.3167   -5.3057   -0.1065 C.ar      1 <0>        -0.1135
      2 C2          3.2508   -4.4949    0.5358 C.ar      1 <0>        -0.1139
      3 C3          3.0216   -3.1649    0.7107 C.ar      1 <0>        -0.1053
      4 C4          1.8262   -2.5972    0.2378 C.ar      1 <0>        -0.0490
      5 C5          1.5540   -1.2280    0.4002 C.ar      1 <0>        -0.0863
      6 C6          0.3853   -0.7134   -0.0703 C.ar      1 <0>        -0.0984
      7 C7         -0.5512   -1.5253   -0.7078 C.ar      1 <0>        -0.1089
      8 C8         -0.3193   -2.8541   -0.8881 C.ar      1 <0>        -0.1022
      9 C9          0.8763   -3.4217   -0.4153 C.ar      1 <0>        -0.0502
     10 C10         1.1481   -4.7910   -0.5770 C.ar      1 <0>        -0.1082
     11 C11         0.0966    0.7551    0.1062 C.3       1 <0>         0.1759
     12 H1         -0.3743    0.9371    1.0835 H         1 <0>         0.1058
     13 C12        -0.8125    1.2289   -1.0163 C.3       1 <0>        -0.1019
     14 H2         -1.7648    0.7049   -0.8471 H         1 <0>         0.1054
     15 C13        -0.8940    2.7746   -1.0294 C.3       1 <0>        -0.0904
     16 C14        -1.1033    3.0976   -2.4970 C.2       1 <0>        -0.1563
     17 C15        -0.6973    2.1051   -3.2476 C.2       1 <0>        -0.1701
     18 C16        -0.1579    0.9726   -2.3891 C.3       1 <0>        -0.0004
     19 H3         -0.3580   -0.0375   -2.7760 H         1 <0>         0.0967
     20 C17         1.3395    1.1156   -2.3167 C.ar      1 <0>        -0.1271
     21 C18         2.0560    0.9889   -3.4999 C.ar      1 <0>        -0.0326
     22 C19         3.4308    1.1032   -3.5040 C.ar      1 <0>        -0.1608
     23 C20         4.1090    1.3459   -2.3232 C.ar      1 <0>        -0.0293
     24 C21         3.4062    1.4752   -1.1441 C.ar      1 <0>        -0.1069
     25 C22         2.0161    1.3615   -1.1371 C.ar      1 <0>         0.2888
     26 N1          1.3543    1.5035    0.0827 N.pl3     1 <0>        -0.7442
     27 N2          4.1302    1.7363    0.1201 N.pl3     1 <0>         0.0449
     28 O1          3.6478    2.4795    0.9558 O.2       1 <0>        -0.1867
     29 O2          5.2084    1.2079    0.3247 O.3       1 <0>        -0.1550
     30 H4          2.5233   -6.3583   -0.2324 H         1 <0>         0.1244
     31 H5          4.1702   -4.9287    0.9005 H         1 <0>         0.1246
     32 H6          3.7548   -2.5488    1.2100 H         1 <0>         0.1251
     33 H7          2.2687   -0.5875    0.8955 H         1 <0>         0.1169
     34 H8         -1.4729   -1.0925   -1.0679 H         1 <0>         0.1277
     35 H9         -1.0524   -3.4703   -1.3873 H         1 <0>         0.1290
     36 H10         0.4335   -5.4314   -1.0728 H         1 <0>         0.1276
     37 H11        -1.7356    3.1027   -0.4016 H         1 <0>         0.0735
     38 H12         0.0431    3.1946   -0.6351 H         1 <0>         0.0879
     39 H13        -1.5248    4.0015   -2.9611 H         1 <0>         0.1302
     40 H14        -0.7769    2.1752   -4.3425 H         1 <0>         0.1312
     41 H15         1.5321    0.7989   -4.4250 H         1 <0>         0.1379
     42 H16         3.9780    1.0027   -4.4297 H         1 <0>         0.1425
     43 H17         5.1854    1.4341   -2.3248 H         1 <0>         0.1437
     44 H18         1.6661    2.0828    0.9643 H         1 <0>         0.4582
@<TRIPOS>BOND
     1    1   10 ar
     2    1    2 ar
     3    1   30 1
     4    2    3 ar
     5    2   31 1
     6    3    4 ar
     7    3   32 1
     8    4    9 ar
     9    4    5 ar
    10    5    6 ar
    11    5   33 1
    12    6    7 ar
    13    6   11 1
    14    7    8 ar
    15    7   34 1
    16    8    9 ar
    17    8   35 1
    18    9   10 ar
    19   10   36 1
    20   11   12 1
    21   11   26 1
    22   11   13 1
    23   13   14 1
    24   13   18 1
    25   13   15 1
    26   15   16 1
    27   15   37 1
    28   15   38 1
    29   16   17 2
    30   16   39 1
    31   17   18 1
    32   17   40 1
    33   18   19 1
    34   18   20 1
    35   20   25 ar
    36   20   21 ar
    37   21   22 ar
    38   21   41 1
    39   22   23 ar
    40   22   42 1
    41   23   24 ar
    42   23   43 1
    43   24   25 ar
    44   24   27 1
    45   25   26 1
    46   26   44 1
    47   27   28 2
    48   27   29 1
@<TRIPOS>MOLECULE
ZINC36967003
   32    33     0     0     0
SMALL
USER_CHARGES

@<TRIPOS>ATOM
      1 C1         -0.2246    0.7353    0.2672 C.3       1 <0>        -0.1662
      2 C2         -0.0802   -0.7872    0.2217 C.3       1 <0>         0.1822
      3 H1          0.5460   -1.1177    1.0504 H         1 <0>         0.1050
      4 C3         -1.4411   -1.4245    0.3350 C.ar      1 <0>        -0.0764
      5 C4         -2.1650   -1.7157   -0.8058 C.ar      1 <0>        -0.0958
      6 C5         -3.4142   -2.3007   -0.7018 C.ar      1 <0>        -0.0240
      7 C6         -3.9391   -2.5943    0.5444 C.ar      1 <0>        -0.0937
      8 C7         -3.2153   -2.3033    1.6849 C.ar      1 <0>        -0.0893
      9 C8         -1.9633   -1.7233    1.5807 C.ar      1 <0>        -0.0250
     10 Cl1        -1.0509   -1.3642    3.0133 Cl        1 <0>        -0.0507
     11 Cl2        -4.3238   -2.6659   -2.1347 Cl        1 <0>        -0.0477
     12 N1          0.5395   -1.1812   -1.0460 N.pl3     1 <0>        -0.7224
     13 C9          1.9318   -1.1748   -1.1753 C.ar      1 <0>         0.2744
     14 C10         2.7324   -0.9404   -0.0648 C.ar      1 <0>        -0.1682
     15 C11         4.1072   -0.9345   -0.1949 C.ar      1 <0>        -0.0524
     16 C12         4.6878   -1.1619   -1.4314 C.ar      1 <0>         0.0517
     17 C13         3.8917   -1.3953   -2.5398 C.ar      1 <0>        -0.0501
     18 C14         2.5161   -1.4083   -2.4131 C.ar      1 <0>        -0.0987
     19 N2          1.6658   -1.6644   -3.5971 N.pl3     1 <0>         0.0411
     20 O1          2.0083   -2.4784   -4.4227 O.2       1 <0>        -0.1385
     21 O2          0.6286   -1.0595   -3.7386 O.3       1 <0>        -0.1725
     22 F1          6.0330   -1.1557   -1.5564 F         1 <0>        -0.1263
     23 H2          0.7597    1.1962    0.1852 H         1 <0>         0.0713
     24 H3         -0.8508    1.0658   -0.5615 H         1 <0>         0.0703
     25 H4         -0.6857    1.0284    1.2104 H         1 <0>         0.0769
     26 H5         -1.7556   -1.4862   -1.7785 H         1 <0>         0.1429
     27 H6         -4.9145   -3.0507    0.6257 H         1 <0>         0.1486
     28 H7         -3.6251   -2.5321    2.6576 H         1 <0>         0.1496
     29 H8         -0.0160   -1.4466   -1.7956 H         1 <0>         0.4116
     30 H9          2.2800   -0.7627    0.8997 H         1 <0>         0.1561
     31 H10         4.7301   -0.7520    0.6683 H         1 <0>         0.1566
     32 H11         4.3466   -1.5721   -3.5032 H         1 <0>         0.1600
@<TRIPOS>BOND
     1    1    2 1
     2    1   23 1
     3    1   24 1
     4    1   25 1
     5    2    3 1
     6    2    4 1
     7    2   12 1
     8    4    9 ar
     9    4    5 ar
    10    5    6 ar
    11    5   26 1
    12    6    7 ar
    13    6   11 1
    14    7    8 ar
    15    7   27 1
    16    8    9 ar
    17    8   28 1
    18    9   10 1
    19   12   13 1
    20   12   29 1
    21   13   18 ar
    22   13   14 ar
    23   14   15 ar
    24   14   30 1
    25   15   16 ar
    26   15   31 1
    27   16   17 ar
    28   16   22 1
    29   17   18 ar
    30   17   32 1
    31   18   19 1
    32   19   20 2
    33   19   21 1
@<TRIPOS>MOLECULE
ZINC16449151
   32    34     0     0     0
SMALL
USER_CHARGES

@<TRIPOS>ATOM
      1 C1          0.1604    1.0932    2.3573 C.ar      1 <0>        -0.1033
      2 C2          1.1534    1.9573    1.9330 C.ar      1 <0>        -0.1587
      3 C3          2.1656    1.5012    1.1090 C.ar      1 <0>        -0.1029
      4 C4          2.1880    0.1791    0.7065 C.ar      1 <0>        -0.0538
      5 C5          1.1913   -0.6915    1.1314 C.ar      1 <0>         0.1684
      6 C6          0.1764   -0.2291    1.9592 C.ar      1 <0>        -0.1433
      7 N1          1.2102   -2.0298    0.7261 N.2       1 <0>        -0.5544
      8 C7          0.0463   -2.7511    0.6907 C.2       1 <0>         0.4492
      9 N2         -1.1954   -2.3139    0.8305 N.2       1 <0>        -0.7108
     10 C8         -2.2360   -3.1148    0.7751 C.2       1 <0>         0.5249
     11 O1         -3.3760   -2.6998    0.9051 O.2       1 <0>        -0.5249
     12 C9         -1.9465   -4.5527    0.5451 C.2       1 <0>        -0.1760
     13 C10        -2.7964   -5.6041    0.4405 C.2       1 <0>        -0.0353
     14 C11        -4.2462   -5.3738    0.3820 C.ar      1 <0>        -0.0208
     15 C12        -4.7517   -4.2575   -0.2961 C.ar      1 <0>        -0.0471
     16 C13        -6.0997   -4.0447   -0.3501 C.ar      1 <0>        -0.0753
     17 C14        -6.9750   -4.9406    0.2715 C.ar      1 <0>        -0.0365
     18 C15        -6.4715   -6.0555    0.9488 C.ar      1 <0>        -0.0825
     19 C16        -5.1242   -6.2736    0.9993 C.ar      1 <0>        -0.1061
     20 C17        -8.3881   -4.7158    0.2149 C.1       1 <0>         0.2640
     21 N3         -9.5091   -4.5376    0.1699 N.1       1 <0>        -0.4346
     22 S1         -0.1618   -4.5066    0.4369 S.3       1 <0>        -0.1228
     23 Cl1         3.4588   -0.3931   -0.3286 Cl        1 <0>        -0.0809
     24 H1         -0.6262    1.4519    3.0046 H         1 <0>         0.1147
     25 H2          1.1379    2.9909    2.2458 H         1 <0>         0.1171
     26 H3          2.9394    2.1787    0.7792 H         1 <0>         0.1218
     27 H4         -0.5993   -0.9031    2.2914 H         1 <0>         0.1439
     28 H5         -2.4075   -6.6109    0.4002 H         1 <0>         0.1366
     29 H6         -4.0758   -3.5650   -0.7757 H         1 <0>         0.1396
     30 H7         -6.4898   -3.1840   -0.8730 H         1 <0>         0.1289
     31 H8         -7.1486   -6.7467    1.4285 H         1 <0>         0.1287
     32 H9         -4.7359   -7.1372    1.5187 H         1 <0>         0.1326
@<TRIPOS>BOND
     1    1    6 ar
     2    1    2 ar
     3    1   24 1
     4    2    3 ar
     5    2   25 1
     6    3    4 ar
     7    3   26 1
     8    4    5 ar
     9    4   23 1
    10    5    6 ar
    11    5    7 1
    12    6   27 1
    13    7    8 1
    14    8   22 1
    15    8    9 2
    16    9   10 1
    17   10   11 2
    18   10   12 1
    19   12   13 2
    20   12   22 1
    21   13   14 1
    22   13   28 1
    23   14   19 ar
    24   14   15 ar
    25   15   16 ar
    26   15   29 1
    27   16   17 ar
    28   16   30 1
    29   17   18 ar
    30   17   20 1
    31   18   19 ar
    32   18   31 1
    33   19   32 1
    34   20   21 3
@<TRIPOS>MOLECULE
ZINC18010202
   32    34     0     0     0
SMALL
USER_CHARGES

@<TRIPOS>ATOM
      1 C1          0.1857    1.3314    0.8609 C.ar      1 <0>        -0.1029
      2 C2          1.2043    2.0751    0.2934 C.ar      1 <0>        -0.1603
      3 C3          2.2343    1.4433   -0.3788 C.ar      1 <0>        -0.1025
      4 C4          2.2487    0.0653   -0.4856 C.ar      1 <0>        -0.0547
      5 C5          1.2265   -0.6846    0.0841 C.ar      1 <0>         0.1687
      6 C6          0.1939   -0.0459    0.7584 C.ar      1 <0>        -0.1465
      7 N1          1.2372   -2.0790   -0.0222 N.2       1 <0>        -0.5542
      8 C7          0.0654   -2.7848    0.0893 C.2       1 <0>         0.4463
      9 N2         -1.1738   -2.3216    0.1160 N.2       1 <0>        -0.7105
     10 C8         -2.2195   -3.1124    0.2269 C.2       1 <0>         0.5251
     11 O1         -3.3593   -2.6725    0.2501 O.2       1 <0>        -0.5349
     12 C9         -1.9429   -4.5592    0.3213 C.2       1 <0>        -0.1637
     13 C10        -2.8157   -5.6185    0.4438 C.2       1 <0>        -0.0479
     14 C11        -2.3218   -6.9294    0.5173 C.2       1 <0>        -0.0820
     15 C12        -3.1845   -7.9763    0.6383 C.2       1 <0>        -0.0994
     16 C13        -2.6867   -9.2973    0.7123 C.2       1 <0>         0.0281
     17 C14        -3.4433  -10.4471    0.8302 C.2       1 <0>        -0.2002
     18 C15        -2.5380  -11.5183    0.8678 C.2       1 <0>        -0.2134
     19 C16        -1.2951  -10.9954    0.7739 C.2       1 <0>        -0.0412
     20 O2         -1.3878   -9.6612    0.6747 O.3       1 <0>        -0.1675
     21 S1         -0.1570   -4.5517    0.2255 S.3       1 <0>        -0.1158
     22 Cl1         3.5413   -0.7275   -1.3306 Cl        1 <0>        -0.0815
     23 H1         -0.6150    1.8281    1.3888 H         1 <0>         0.1146
     24 H2          1.1951    3.1519    0.3753 H         1 <0>         0.1168
     25 H3          3.0280    2.0270   -0.8211 H         1 <0>         0.1216
     26 H4         -0.6019   -0.6256    1.2022 H         1 <0>         0.1457
     27 H5         -3.8801   -5.4395    0.4831 H         1 <0>         0.1423
     28 H6         -1.2575   -7.1085    0.4780 H         1 <0>         0.1223
     29 H7         -4.2488   -7.7973    0.6776 H         1 <0>         0.1481
     30 H8         -4.5202  -10.5092    0.8833 H         1 <0>         0.1504
     31 H9         -2.7877  -12.5654    0.9554 H         1 <0>         0.1477
     32 H10        -0.3753  -11.5614    0.7743 H         1 <0>         0.2012
@<TRIPOS>BOND
     1    1    6 ar
     2    1    2 ar
     3    1   23 1
     4    2    3 ar
     5    2   24 1
     6    3    4 ar
     7    3   25 1
     8    4    5 ar
     9    4   22 1
    10    5    6 ar
    11    5    7 1
    12    6   26 1
    13    7    8 1
    14    8   21 1
    15    8    9 2
    16    9   10 1
    17   10   11 2
    18   10   12 1
    19   12   13 2
    20   12   21 1
    21   13   14 1
    22   13   27 1
    23   14   15 2
    24   14   28 1
    25   15   16 1
    26   15   29 1
    27   16   20 1
    28   16   17 2
    29   17   18 1
    30   17   30 1
    31   18   19 2
    32   18   31 1
    33   19   20 1
    34   19   32 1
@<TRIPOS>MOLECULE
ZINC09027998
   51    54     0     0     0
SMALL
USER_CHARGES
N-[[5-[(3,4-dichlorophenyl)methylsulfonyl]-1,3,4-oxadiazol-2-yl]methyl]tetralin-2-sulfonamide
@<TRIPOS>ATOM
      1 C1          1.1704    2.0864    0.0021 C.ar      1 <0>        -0.0801
      2 C2          2.3777    1.4131   -0.0130 C.ar      1 <0>        -0.0948
      3 C3          2.3983    0.0303   -0.0206 C.ar      1 <0>        -0.0161
      4 C4          1.2090   -0.6792   -0.0131 C.ar      1 <0>        -0.0318
      5 C5          0.0021   -0.0041    0.0020 C.ar      1 <0>        -0.0775
      6 C6         -0.0167    1.3783    0.0096 C.ar      1 <0>        -0.0906
      7 C7         -1.3321    2.1135    0.0198 C.3       1 <0>        -0.5447
      8 S1         -1.8518    2.3992    1.7341 S.o2      1 <0>         2.5103
      9 O1         -2.1778    1.1652    2.3589 O.2       1 <0>        -0.8692
     10 O2         -0.9730    3.3206    2.3649 O.2       1 <0>        -0.8843
     11 C8         -3.3856    3.2569    1.6053 C.2       1 <0>        -0.3587
     12 N1         -4.5691    2.7155    1.5469 N.2       1 <0>        -0.1703
     13 N2         -5.4582    3.6413    1.4581 N.2       1 <0>        -0.2603
     14 C9         -4.8722    4.8048    1.4569 C.2       1 <0>         0.1925
     15 O3         -3.5496    4.5895    1.5553 O.3       1 <0>        -0.1634
     16 C10        -5.5533    6.1462    1.3677 C.3       1 <0>         0.2109
     17 N3         -5.8626    6.6274    2.7163 N.pl3     1 <0>        -1.1188
     18 S2         -6.2678    8.2151    2.9562 S.o2      1 <0>         2.6973
     19 O4         -6.5330    8.3612    4.3446 O.2       1 <0>        -0.9422
     20 O5         -5.2865    8.9910    2.2823 O.2       1 <0>        -0.9453
     21 C11        -7.7931    8.4956    2.1200 C.ar      1 <0>        -0.6822
     22 C12        -7.7950    8.9139    0.8021 C.ar      1 <0>        -0.0291
     23 C13        -8.9932    9.1279    0.1532 C.ar      1 <0>        -0.1383
     24 C14       -10.1989    8.9382    0.8164 C.ar      1 <0>        -0.0147
     25 C15       -10.1970    8.5240    2.1292 C.ar      1 <0>        -0.0945
     26 C16        -8.9893    8.3041    2.7794 C.ar      1 <0>        -0.0126
     27 C17       -11.4653    8.2888    2.9071 C.3       1 <0>        -0.0855
     28 C18       -12.6489    8.9701    2.2233 C.3       1 <0>        -0.1224
     29 C19       -12.6618    8.5514    0.7483 C.3       1 <0>        -0.1223
     30 C20       -11.4694    9.2041    0.0519 C.3       1 <0>        -0.0923
     31 Cl1         1.2332   -2.4150   -0.0221 Cl        1 <0>        -0.0323
     32 Cl2         3.9142   -0.8156   -0.0390 Cl        1 <0>        -0.0336
     33 H1          1.1546    3.1663    0.0080 H         1 <0>         0.1528
     34 H2          3.3048    1.9671   -0.0189 H         1 <0>         0.1549
     35 H3         -0.9258   -0.5567    0.0075 H         1 <0>         0.1565
     36 H4         -1.2175    3.0704   -0.4894 H         1 <0>         0.1612
     37 H5         -2.0859    1.5167   -0.4937 H         1 <0>         0.1620
     38 H6         -4.8926    6.8567    0.8710 H         1 <0>         0.1263
     39 H7         -6.4763    6.0477    0.7964 H         1 <0>         0.1267
     40 H8         -5.8302    6.0161    3.4688 H         1 <0>         0.4271
     41 H9         -6.8616    9.0686    0.2813 H         1 <0>         0.1419
     42 H10        -8.9939    9.4493   -0.8779 H         1 <0>         0.1342
     43 H11        -8.9870    7.9802    3.8097 H         1 <0>         0.1406
     44 H12       -11.6548    7.2173    2.9702 H         1 <0>         0.0815
     45 H13       -11.3502    8.6927    3.9129 H         1 <0>         0.0805
     46 H14       -13.5778    8.6591    2.7013 H         1 <0>         0.0730
     47 H15       -12.5425   10.0524    2.2973 H         1 <0>         0.0676
     48 H16       -12.5819    7.4669    0.6739 H         1 <0>         0.0681
     49 H17       -13.5882    8.8842    0.2803 H         1 <0>         0.0729
     50 H18       -11.3746    8.7977   -0.9550 H         1 <0>         0.0829
     51 H19       -11.6336   10.2799   -0.0093 H         1 <0>         0.0861
@<TRIPOS>BOND
     1    1    6 ar
     2    1    2 ar
     3    1   33 1
     4    2    3 ar
     5    2   34 1
     6    3    4 ar
     7    3   32 1
     8    4    5 ar
     9    4   31 1
    10    5    6 ar
    11    5   35 1
    12    6    7 1
    13    7    8 1
    14    7   36 1
    15    7   37 1
    16    8    9 2
    17    8   10 2
    18    8   11 1
    19   11   15 1
    20   11   12 2
    21   12   13 1
    22   13   14 2
    23   14   15 1
    24   14   16 1
    25   16   17 1
    26   16   38 1
    27   16   39 1
    28   17   18 1
    29   17   40 1
    30   18   19 2
    31   18   20 2
    32   18   21 1
    33   21   26 ar
    34   21   22 ar
    35   22   23 ar
    36   22   41 1
    37   23   24 ar
    38   23   42 1
    39   24   30 1
    40   24   25 ar
    41   25   26 ar
    42   25   27 1
    43   26   43 1
    44   27   28 1
    45   27   44 1
    46   27   45 1
    47   28   29 1
    48   28   46 1
    49   28   47 1
    50   29   30 1
    51   29   48 1
    52   29   49 1
    53   30   50 1
    54   30   51 1
@<TRIPOS>MOLECULE
ZINC13959561
   67    70     0     0     0
SMALL
USER_CHARGES
isopropyl 2-[[2-[(4E)-4-[(1,3-dimethylpyrazol-4-yl)methylene]-1-ethyl-5-oxo-imidazol-2-yl]sulfanylacetyl]amino]-4,5,6,7-tetrahydrobenzothiophene-3-carboxylate
@<TRIPOS>ATOM
      1 C1         -7.9649    8.0683    2.5327 C.3       1 <0>        -0.1719
      2 C2         -7.8188    8.2283    1.0181 C.3       1 <0>         0.1107
      3 N1         -6.6170    9.0127    0.7236 N.am      1 <0>        -0.5507
      4 C3         -6.5596   10.3575    0.6084 C.2       1 <0>         0.5216
      5 O1         -7.4792   11.1474    0.7253 O.2       1 <0>        -0.4930
      6 C4         -5.1523   10.6665    0.3056 C.2       1 <0>        -0.0869
      7 C5         -4.6030   11.9108    0.0969 C.2       1 <0>         0.1247
      8 C6         -5.4711   13.0885   -0.0009 C.2       1 <0>        -0.2657
      9 C7         -6.7355   13.1345   -0.5638 C.2       1 <0>         0.1487
     10 N2         -7.1814   14.3973   -0.4442 N.pl3     1 <0>        -0.3628
     11 N3         -6.1935   15.1600    0.1882 N.2       1 <0>        -0.3020
     12 C8         -5.1724   14.3943    0.4568 C.2       1 <0>         0.1138
     13 C9         -3.8973   14.8246    1.1351 C.3       1 <0>        -0.0784
     14 C10        -8.4809   14.8930   -0.9046 C.3       1 <0>         0.0968
     15 N4         -4.5024    9.4625    0.2750 N.2       1 <0>        -0.4879
     16 C11        -5.3581    8.5066    0.5214 C.2       1 <0>         0.2837
     17 S1         -4.9506    6.7933    0.5790 S.3       1 <0>         0.0960
     18 C12        -3.1783    6.8797    0.2221 C.3       1 <0>        -0.1494
     19 C13        -2.5980    5.4889    0.2196 C.2       1 <0>         0.5312
     20 O2         -3.3124    4.5334    0.4376 O.2       1 <0>        -0.4811
     21 N5         -1.2852    5.3068   -0.0249 N.am      1 <0>        -0.6131
     22 C14        -0.7515    4.0276   -0.0272 C.2       1 <0>         0.0753
     23 C15         0.5627    3.6412   -0.2556 C.2       1 <0>        -0.2007
     24 C16         0.8635    2.2203   -0.2010 C.2       1 <0>        -0.0629
     25 C17        -0.1894    1.4194    0.0701 C.2       1 <0>        -0.2034
     26 S2         -1.5636    2.5217    0.2461 S.3       1 <0>         0.2470
     27 C18        -0.1821   -0.0737    0.1869 C.3       1 <0>        -0.0363
     28 C19         1.1285   -0.5996   -0.4162 C.3       1 <0>        -0.1158
     29 C20         2.2937    0.2210    0.1442 C.3       1 <0>        -0.1184
     30 C21         2.2536    1.6391   -0.4281 C.3       1 <0>        -0.0631
     31 C22         1.6061    4.6283   -0.5411 C.2       1 <0>         0.5310
     32 O3          1.8357    4.9555   -1.6899 O.2       1 <0>        -0.4930
     33 O4          2.3125    5.1745    0.4698 O.3       1 <0>        -0.3448
     34 C23         3.3309    6.1459    0.1128 C.3       1 <0>         0.0760
     35 C24         2.7157    7.5466    0.0948 C.3       1 <0>        -0.1716
     36 C25         4.4629    6.0993    1.1411 C.3       1 <0>        -0.1504
     37 H1         -7.0894    7.5547    2.9299 H         1 <0>         0.0657
     38 H2         -8.0504    9.0515    2.9953 H         1 <0>         0.0616
     39 H3         -8.8591    7.4847    2.7518 H         1 <0>         0.0795
     40 H4         -8.6943    8.7419    0.6208 H         1 <0>         0.0953
     41 H5         -7.7334    7.2451    0.5554 H         1 <0>         0.0931
     42 H6         -3.5325   12.0200    0.0052 H         1 <0>         0.1483
     43 H7         -7.2664   12.3082   -1.0131 H         1 <0>         0.1812
     44 H8         -3.1798   15.1550    0.3841 H         1 <0>         0.0838
     45 H9         -4.1095   15.6450    1.8207 H         1 <0>         0.0783
     46 H10        -3.4804   13.9849    1.6913 H         1 <0>         0.0796
     47 H11        -8.3926   15.2429   -1.9331 H         1 <0>         0.0798
     48 H12        -9.2146   14.0883   -0.8563 H         1 <0>         0.0918
     49 H13        -8.8023   15.7165   -0.2669 H         1 <0>         0.0942
     50 H14        -2.6826    7.4788    0.9860 H         1 <0>         0.1390
     51 H15        -3.0263    7.3385   -0.7549 H         1 <0>         0.1387
     52 H16        -0.7138    6.0710   -0.1993 H         1 <0>         0.4226
     53 H17        -0.2442   -0.3602    1.2368 H         1 <0>         0.0852
     54 H18        -1.0302   -0.4887   -0.3577 H         1 <0>         0.0832
     55 H19         1.2586   -1.6484   -0.1492 H         1 <0>         0.0756
     56 H20         1.0973   -0.5000   -1.5012 H         1 <0>         0.0692
     57 H21         2.2153    0.2665    1.2304 H         1 <0>         0.0688
     58 H22         3.2359   -0.2528   -0.1313 H         1 <0>         0.0716
     59 H23         2.9954    2.2580    0.0768 H         1 <0>         0.0738
     60 H24         2.4667    1.6082   -1.4966 H         1 <0>         0.0800
     61 H25         3.7273    5.9104   -0.8748 H         1 <0>         0.0863
     62 H26         3.4802    8.2758   -0.1732 H         1 <0>         0.0786
     63 H27         1.9092    7.5798   -0.6378 H         1 <0>         0.0595
     64 H28         2.3193    7.7821    1.0824 H         1 <0>         0.0680
     65 H29         4.9012    5.1014    1.1540 H         1 <0>         0.0654
     66 H30         5.2275    6.8285    0.8731 H         1 <0>         0.0804
     67 H31         4.0665    6.3348    2.1288 H         1 <0>         0.0687
@<TRIPOS>BOND
     1    1    2 1
     2    1   37 1
     3    1   38 1
     4    1   39 1
     5    2    3 1
     6    2   40 1
     7    2   41 1
     8    3   16 1
     9    3    4 am
    10    4    5 2
    11    4    6 1
    12    6    7 2
    13    6   15 1
    14    7    8 1
    15    7   42 1
    16    8   12 1
    17    8    9 2
    18    9   10 1
    19    9   43 1
    20   10   11 1
    21   10   14 1
    22   11   12 2
    23   12   13 1
    24   13   44 1
    25   13   45 1
    26   13   46 1
    27   14   47 1
    28   14   48 1
    29   14   49 1
    30   15   16 2
    31   16   17 1
    32   17   18 1
    33   18   19 1
    34   18   50 1
    35   18   51 1
    36   19   20 2
    37   19   21 am
    38   21   22 1
    39   21   52 1
    40   22   26 1
    41   22   23 2
    42   23   24 1
    43   23   31 1
    44   24   30 1
    45   24   25 2
    46   25   26 1
    47   25   27 1
    48   27   28 1
    49   27   53 1
    50   27   54 1
    51   28   29 1
    52   28   55 1
    53   28   56 1
    54   29   30 1
    55   29   57 1
    56   29   58 1
    57   30   59 1
    58   30   60 1
    59   31   32 2
    60   31   33 1
    61   33   34 1
    62   34   35 1
    63   34   36 1
    64   34   61 1
    65   35   62 1
    66   35   63 1
    67   35   64 1
    68   36   65 1
    69   36   66 1
    70   36   67 1
@<TRIPOS>MOLECULE
ZINC35643645
   71    74     0     0     0
SMALL
USER_CHARGES

@<TRIPOS>ATOM
      1 C1          0.6414   -2.6147    4.8527 C.3       1 <0>        -0.1522
      2 C2         -0.1582   -2.2838    3.5909 C.3       1 <0>         0.0594
      3 O1          0.7065   -2.3269    2.4541 O.3       1 <0>        -0.3435
      4 C3          0.1536   -2.0568    1.2531 C.2       1 <0>         0.5486
      5 O2         -1.0315   -1.7919    1.1747 O.2       1 <0>        -0.4935
      6 C4          0.9515   -2.0816    0.0854 C.2       1 <0>        -0.2630
      7 C5          1.3175   -3.2494   -0.4855 C.2       1 <0>         0.2256
      8 N1          2.0875   -3.2719   -1.6130 N.am      1 <0>        -0.5325
      9 C6          2.5326   -2.1703   -2.2304 C.2       1 <0>         0.7048
     10 O3          3.2132   -2.2910   -3.2303 O.2       1 <0>        -0.5592
     11 N2          2.2501   -0.9320   -1.7797 N.am      1 <0>        -0.7121
     12 C7          1.4194   -0.7985   -0.5711 C.3       1 <0>         0.2544
     13 H1          0.5376   -0.2117   -0.8283 H         1 <0>         0.0906
     14 C8          2.2104   -0.0176    0.4466 C.ar      1 <0>        -0.1532
     15 C9          3.5298   -0.3473    0.6960 C.ar      1 <0>        -0.0478
     16 C10         4.2569    0.3667    1.6287 C.ar      1 <0>        -0.1494
     17 C11         3.6623    1.4156    2.3150 C.ar      1 <0>         0.1368
     18 C12         2.3384    1.7447    2.0625 C.ar      1 <0>        -0.2060
     19 C13         1.6172    1.0309    1.1251 C.ar      1 <0>        -0.0639
     20 O4          4.3753    2.1193    3.2333 O.3       1 <0>        -0.3162
     21 C14         3.6986    3.1859    3.9015 C.3       1 <0>         0.0262
     22 C15         2.4472   -4.5746   -2.1787 C.3       1 <0>         0.0897
     23 C16         0.8693   -4.5489    0.1322 C.3       1 <0>         0.0770
     24 N3         -0.0200   -5.2535   -0.8008 N.3       1 <0>        -0.5314
     25 C17        -1.2682   -4.5061   -1.0043 C.3       1 <0>         0.0366
     26 C18        -2.0856   -5.1758   -2.1141 C.3       1 <0>         0.0935
     27 N4         -2.2596   -6.5961   -1.7740 N.am      1 <0>        -0.6057
     28 C19        -1.0649   -7.3791   -1.4233 C.3       1 <0>         0.1534
     29 H2         -0.4368   -7.5037   -2.3054 H         1 <0>         0.0849
     30 C20        -0.2877   -6.6226   -0.3407 C.3       1 <0>         0.0431
     31 C21        -1.4867   -8.7515   -0.8947 C.3       1 <0>        -0.1399
     32 C22        -3.4812   -7.1652   -1.7839 C.2       1 <0>         0.5627
     33 O5         -3.6184   -8.3167   -1.4189 O.2       1 <0>        -0.5127
     34 C23        -4.6534   -6.3900   -2.2382 C.ar      1 <0>        -0.1757
     35 C24        -4.5001   -5.3781   -3.1885 C.ar      1 <0>        -0.0733
     36 C25        -5.5983   -4.6585   -3.6087 C.ar      1 <0>        -0.1378
     37 C26        -6.8524   -4.9353   -3.0912 C.ar      1 <0>        -0.0632
     38 C27        -7.0143   -5.9343   -2.1501 C.ar      1 <0>        -0.1623
     39 C28        -5.9230   -6.6692   -1.7232 C.ar      1 <0>         0.1564
     40 F1         -6.0823   -7.6495   -0.8073 F         1 <0>        -0.1187
     41 H3          1.0701   -3.6125    4.7599 H         1 <0>         0.0665
     42 H4          1.4418   -1.8854    4.9773 H         1 <0>         0.0675
     43 H5         -0.0182   -2.5818    5.7198 H         1 <0>         0.0802
     44 H6         -0.9587   -3.0131    3.4664 H         1 <0>         0.0659
     45 H7         -0.5870   -1.2860    3.6837 H         1 <0>         0.0685
     46 H8          2.5833   -0.1472   -2.2424 H         1 <0>         0.4338
     47 H9          3.9922   -1.1639    0.1615 H         1 <0>         0.1229
     48 H10         5.2872    0.1084    1.8238 H         1 <0>         0.1322
     49 H11         1.8733    2.5608    2.5955 H         1 <0>         0.1301
     50 H12         0.5878    1.2895    0.9250 H         1 <0>         0.1253
     51 H13         2.8381    2.7892    4.4402 H         1 <0>         0.0563
     52 H14         4.3797    3.6634    4.6059 H         1 <0>         0.1020
     53 H15         3.3620    3.9186    3.1681 H         1 <0>         0.0567
     54 H16         1.6880   -4.8802   -2.8987 H         1 <0>         0.0770
     55 H17         3.4128   -4.4994   -2.6788 H         1 <0>         0.0862
     56 H18         2.5084   -5.3133   -1.3796 H         1 <0>         0.0820
     57 H19         1.7398   -5.1700    0.3435 H         1 <0>         0.1105
     58 H20         0.3347   -4.3450    1.0599 H         1 <0>         0.0645
     59 H21        -1.8450   -4.5027   -0.0794 H         1 <0>         0.0472
     60 H22        -1.0355   -3.4809   -1.2921 H         1 <0>         0.0917
     61 H23        -3.0611   -4.6956   -2.1910 H         1 <0>         0.1095
     62 H24        -1.5557   -5.0887   -3.0626 H         1 <0>         0.0835
     63 H25         0.6562   -7.1324   -0.1472 H         1 <0>         0.0944
     64 H26        -0.8781   -6.5897    0.5750 H         1 <0>         0.0464
     65 H27        -1.9541   -9.3220   -1.6973 H         1 <0>         0.0779
     66 H28        -0.6091   -9.2866   -0.5319 H         1 <0>         0.0498
     67 H29        -2.1975   -8.6236   -0.0782 H         1 <0>         0.0706
     68 H30        -3.5229   -5.1596   -3.5933 H         1 <0>         0.1487
     69 H31        -5.4800   -3.8760   -4.3436 H         1 <0>         0.1383
     70 H32        -7.7084   -4.3674   -3.4246 H         1 <0>         0.1396
     71 H33        -7.9954   -6.1443   -1.7503 H         1 <0>         0.1437
@<TRIPOS>BOND
     1    1    2 1
     2    1   41 1
     3    1   42 1
     4    1   43 1
     5    2    3 1
     6    2   44 1
     7    2   45 1
     8    3    4 1
     9    4    5 2
    10    4    6 1
    11    6   12 1
    12    6    7 2
    13    7    8 1
    14    7   23 1
    15    8    9 am
    16    8   22 1
    17    9   10 2
    18    9   11 am
    19   11   12 1
    20   11   46 1
    21   12   13 1
    22   12   14 1
    23   14   19 ar
    24   14   15 ar
    25   15   16 ar
    26   15   47 1
    27   16   17 ar
    28   16   48 1
    29   17   18 ar
    30   17   20 1
    31   18   19 ar
    32   18   49 1
    33   19   50 1
    34   20   21 1
    35   21   51 1
    36   21   52 1
    37   21   53 1
    38   22   54 1
    39   22   55 1
    40   22   56 1
    41   23   24 1
    42   23   57 1
    43   23   58 1
    44   24   30 1
    45   24   25 1
    46   25   26 1
    47   25   59 1
    48   25   60 1
    49   26   27 1
    50   26   61 1
    51   26   62 1
    52   27   28 1
    53   27   32 am
    54   28   29 1
    55   28   30 1
    56   28   31 1
    57   30   63 1
    58   30   64 1
    59   31   65 1
    60   31   66 1
    61   31   67 1
    62   32   33 2
    63   32   34 1
    64   34   39 ar
    65   34   35 ar
    66   35   36 ar
    67   35   68 1
    68   36   37 ar
    69   36   69 1
    70   37   38 ar
    71   37   70 1
    72   38   39 ar
    73   38   71 1
    74   39   40 1
@<TRIPOS>MOLECULE
ZINC40405645
   67    71     0     0     0
SMALL
USER_CHARGES

@<TRIPOS>ATOM
      1 C1          0.1816    1.2199    0.9994 C.3       1 <0>        -0.1511
      2 C2          0.2131   -0.3010    0.8351 C.3       1 <0>         0.0508
      3 N1          0.7692   -0.6398   -0.4816 N.3       1 <0>        -0.5367
      4 C3          2.1801   -0.2416   -0.5756 C.3       1 <0>         0.0370
      5 C4          2.6699   -0.4441   -2.0134 C.3       1 <0>         0.1190
      6 N2          2.3874   -1.8313   -2.4122 N.am      1 <0>        -0.6100
      7 C5          1.0235   -2.3469   -2.2190 C.3       1 <0>         0.1037
      8 C6          0.5985   -2.0695   -0.7731 C.3       1 <0>         0.0377
      9 C7          3.3525   -2.6093   -2.9411 C.2       1 <0>         0.5010
     10 O1          4.4717   -2.1677   -3.0937 O.2       1 <0>        -0.4945
     11 C8          3.0410   -4.0280   -3.3429 C.3       1 <0>         0.0800
     12 H1          2.0646   -4.0878   -3.8236 H         1 <0>         0.1310
     13 C9          3.1125   -4.9747   -2.1213 C.3       1 <0>         0.1349
     14 H2          2.9479   -4.4264   -1.1937 H         1 <0>         0.1352
     15 O2          4.4665   -5.4617   -2.1978 O.3       1 <0>        -0.3090
     16 C10         4.8586   -5.3992   -3.4814 C.2       1 <0>         0.6498
     17 O3          5.7998   -6.0246   -3.9280 O.2       1 <0>        -0.5021
     18 N3          4.0949   -4.5680   -4.2244 N.am      1 <0>        -0.6043
     19 C11         4.2758   -4.2579   -5.6447 C.3       1 <0>         0.1905
     20 C12         5.1842   -3.0638   -5.7864 C.ar      1 <0>        -0.1221
     21 C13         4.6505   -1.7887   -5.8078 C.ar      1 <0>        -0.0495
     22 C14         5.4826   -0.6929   -5.9372 C.ar      1 <0>        -0.1522
     23 C15         6.8512   -0.8724   -6.0454 C.ar      1 <0>         0.1079
     24 C16         7.3846   -2.1500   -6.0238 C.ar      1 <0>        -0.1570
     25 C17         6.5510   -3.2440   -5.8891 C.ar      1 <0>        -0.0613
     26 F1          7.6655    0.1981   -6.1724 F         1 <0>        -0.1408
     27 C18         2.1249   -6.1048   -2.2578 C.ar      1 <0>        -0.1367
     28 C19         2.4711   -7.2421   -2.9643 C.ar      1 <0>        -0.0695
     29 C20         1.5684   -8.2795   -3.0913 C.ar      1 <0>        -0.1347
     30 C21         0.3118   -8.1799   -2.5081 C.ar      1 <0>         0.1619
     31 C22        -0.0327   -7.0364   -1.7989 C.ar      1 <0>        -0.1158
     32 C23         0.8765   -6.0046   -1.6716 C.ar      1 <0>        -0.0779
     33 N4         -0.6048   -9.2283   -2.6352 N.am      1 <0>        -0.6658
     34 C24        -1.9244   -8.9644   -2.7097 C.2       1 <0>         0.6096
     35 O4         -2.3125   -7.8121   -2.7632 O.2       1 <0>        -0.4966
     36 C25        -2.8923  -10.0655   -2.7263 C.2       1 <0>        -0.0935
     37 C26        -4.2499   -9.9395   -2.8041 C.2       1 <0>        -0.1047
     38 C27        -4.7773  -11.2402   -2.7911 C.2       1 <0>        -0.2259
     39 C28        -3.7320  -12.0924   -2.7069 C.2       1 <0>         0.0061
     40 O5         -2.5977  -11.3810   -2.6731 O.3       1 <0>        -0.1657
     41 H3          1.1944    1.6150    0.9201 H         1 <0>         0.0550
     42 H4         -0.4410    1.6568    0.2186 H         1 <0>         0.0648
     43 H5         -0.2310    1.4713    1.9764 H         1 <0>         0.0611
     44 H6          0.8358   -0.7379    1.6159 H         1 <0>         0.0346
     45 H7         -0.7996   -0.6960    0.9144 H         1 <0>         0.0778
     46 H8          2.2807    0.8086   -0.3016 H         1 <0>         0.0934
     47 H9          2.7765   -0.8533    0.1014 H         1 <0>         0.0398
     48 H10         2.1460    0.2421   -2.6788 H         1 <0>         0.0787
     49 H11         3.7431   -0.2600   -2.0640 H         1 <0>         0.0976
     50 H12         0.3413   -1.8435   -2.9042 H         1 <0>         0.0868
     51 H13         1.0081   -3.4207   -2.4056 H         1 <0>         0.0853
     52 H14         1.2169   -2.6556   -0.0934 H         1 <0>         0.0404
     53 H15        -0.4480   -2.3449   -0.6424 H         1 <0>         0.0933
     54 H16         4.7210   -5.1150   -6.1500 H         1 <0>         0.1041
     55 H17         3.3083   -4.0337   -6.0938 H         1 <0>         0.0957
     56 H18         3.5829   -1.6489   -5.7237 H         1 <0>         0.1198
     57 H19         5.0654    0.3032   -5.9542 H         1 <0>         0.1314
     58 H20         8.4519   -2.2913   -6.1085 H         1 <0>         0.1342
     59 H21         6.9672   -4.2404   -5.8678 H         1 <0>         0.1338
     60 H22         3.4484   -7.3189   -3.4174 H         1 <0>         0.1267
     61 H23         1.8392   -9.1671   -3.6437 H         1 <0>         0.1339
     62 H24        -1.0090   -6.9558   -1.3442 H         1 <0>         0.1428
     63 H25         0.6108   -5.1169   -1.1167 H         1 <0>         0.1324
     64 H26        -0.2908  -10.1454   -2.6697 H         1 <0>         0.4190
     65 H27        -4.8094   -9.0176   -2.8636 H         1 <0>         0.1636
     66 H28        -5.8222  -11.5093   -2.8393 H         1 <0>         0.1611
     67 H29        -3.7999  -13.1698   -2.6761 H         1 <0>         0.2146
@<TRIPOS>BOND
     1    1    2 1
     2    1   41 1
     3    1   42 1
     4    1   43 1
     5    2    3 1
     6    2   44 1
     7    2   45 1
     8    3    8 1
     9    3    4 1
    10    4    5 1
    11    4   46 1
    12    4   47 1
    13    5    6 1
    14    5   48 1
    15    5   49 1
    16    6    7 1
    17    6    9 am
    18    7    8 1
    19    7   50 1
    20    7   51 1
    21    8   52 1
    22    8   53 1
    23    9   10 2
    24    9   11 1
    25   11   12 1
    26   11   18 1
    27   11   13 1
    28   13   14 1
    29   13   15 1
    30   13   27 1
    31   15   16 1
    32   16   17 2
    33   16   18 am
    34   18   19 1
    35   19   20 1
    36   19   54 1
    37   19   55 1
    38   20   25 ar
    39   20   21 ar
    40   21   22 ar
    41   21   56 1
    42   22   23 ar
    43   22   57 1
    44   23   24 ar
    45   23   26 1
    46   24   25 ar
    47   24   58 1
    48   25   59 1
    49   27   32 ar
    50   27   28 ar
    51   28   29 ar
    52   28   60 1
    53   29   30 ar
    54   29   61 1
    55   30   31 ar
    56   30   33 1
    57   31   32 ar
    58   31   62 1
    59   32   63 1
    60   33   34 am
    61   33   64 1
    62   34   35 2
    63   34   36 1
    64   36   40 1
    65   36   37 2
    66   37   38 1
    67   37   65 1
    68   38   39 2
    69   38   66 1
    70   39   40 1
    71   39   67 1
@<TRIPOS>MOLECULE
ZINC63730428
   50    53     0     0     0
SMALL
USER_CHARGES

@<TRIPOS>ATOM
      1 C1          0.5438    1.2597   -0.4177 C.3       1 <0>         0.0256
      2 O1          0.0450   -0.0227   -0.0323 O.3       1 <0>        -0.3151
      3 C2          0.6583   -0.6340    1.0160 C.ar      1 <0>         0.1565
      4 C3          1.7142   -0.0078    1.6622 C.ar      1 <0>        -0.2217
      5 C4          2.3398   -0.6265    2.7275 C.ar      1 <0>        -0.0505
      6 C5          1.9131   -1.8757    3.1531 C.ar      1 <0>         0.0775
      7 C6          0.8528   -2.5056    2.5058 C.ar      1 <0>         0.1444
      8 C7          0.2240   -1.8803    1.4417 C.ar      1 <0>        -0.2234
      9 O2          0.4327   -3.7304    2.9207 O.3       1 <0>        -0.3164
     10 C8         -0.6599   -4.3165    2.2102 C.3       1 <0>         0.0265
     11 N1          2.5490   -2.5043    4.2343 N.am      1 <0>        -0.6497
     12 C9          3.1938   -1.7656    5.1590 C.2       1 <0>         0.5365
     13 O3          3.1401   -0.5546    5.1131 O.2       1 <0>        -0.4984
     14 C10         3.9815   -2.4441    6.2499 C.3       1 <0>        -0.1527
     15 S1          4.7263   -1.1894    7.3278 S.3       1 <0>        -0.0474
     16 C11         5.6268   -2.1568    8.5703 C.3       1 <0>         0.2654
     17 H1          6.0959   -1.4428    9.2472 H         1 <0>         0.1796
     18 N2          4.6312   -2.9005    9.3461 N.2       1 <0>        -0.2820
     19 C12         4.6893   -4.1906    9.4258 C.2       1 <0>         0.2190
     20 C13         5.7706   -4.9367    8.7287 C.2       1 <0>        -0.2336
     21 C14         5.5351   -6.2431    9.0191 C.2       1 <0>         0.0711
     22 N3          4.4420   -6.3104    9.8012 N.2       1 <0>        -0.1224
     23 N4          3.9408   -5.1528   10.0478 N.2       1 <0>        -0.1075
     24 C15         6.7762   -4.2118    7.9462 C.2       1 <0>         0.5788
     25 O4          7.6638   -4.8143    7.3728 O.2       1 <0>        -0.4770
     26 N5          6.7033   -2.8646    7.8724 N.am      1 <0>        -0.5734
     27 C16         7.6505   -2.1499    7.1325 C.ar      1 <0>         0.1558
     28 C17         8.5242   -1.2817    7.7746 C.ar      1 <0>        -0.1065
     29 C18         9.4589   -0.5775    7.0414 C.ar      1 <0>        -0.0743
     30 C19         9.5256   -0.7361    5.6684 C.ar      1 <0>        -0.0809
     31 C20         8.6565   -1.6003    5.0261 C.ar      1 <0>        -0.0738
     32 C21         7.7233   -2.3111    5.7547 C.ar      1 <0>        -0.0852
     33 Br1        10.8065    0.2304    4.6679 Br        1 <0>        -0.0368
     34 H2          1.5922    1.1712   -0.7028 H         1 <0>         0.0583
     35 H3         -0.0323    1.6344   -1.2637 H         1 <0>         0.1027
     36 H4          0.4521    1.9518    0.4194 H         1 <0>         0.0587
     37 H5          2.0480    0.9648    1.3318 H         1 <0>         0.1362
     38 H6          3.1619   -0.1373    3.2288 H         1 <0>         0.1559
     39 H7         -0.6011   -2.3649    0.9411 H         1 <0>         0.1432
     40 H8         -1.5320   -3.6670    2.2848 H         1 <0>         0.0602
     41 H9         -0.3873   -4.4399    1.1620 H         1 <0>         0.0600
     42 H10        -0.8937   -5.2897    2.6418 H         1 <0>         0.1042
     43 H11         2.5246   -3.4705    4.3163 H         1 <0>         0.4161
     44 H12         3.3175   -3.0790    6.8364 H         1 <0>         0.1171
     45 H13         4.7678   -3.0538    5.8049 H         1 <0>         0.1156
     46 H14         6.1238   -7.0829    8.6805 H         1 <0>         0.2117
     47 H15         8.4724   -1.1572    8.8461 H         1 <0>         0.1365
     48 H16        10.1383    0.0980    7.5400 H         1 <0>         0.1438
     49 H17         8.7108   -1.7221    3.9544 H         1 <0>         0.1424
     50 H18         7.0479   -2.9885    5.2534 H         1 <0>         0.1295
@<TRIPOS>BOND
     1    1    2 1
     2    1   34 1
     3    1   35 1
     4    1   36 1
     5    2    3 1
     6    3    8 ar
     7    3    4 ar
     8    4    5 ar
     9    4   37 1
    10    5    6 ar
    11    5   38 1
    12    6    7 ar
    13    6   11 1
    14    7    8 ar
    15    7    9 1
    16    8   39 1
    17    9   10 1
    18   10   40 1
    19   10   41 1
    20   10   42 1
    21   11   12 am
    22   11   43 1
    23   12   13 2
    24   12   14 1
    25   14   15 1
    26   14   44 1
    27   14   45 1
    28   15   16 1
    29   16   17 1
    30   16   26 1
    31   16   18 1
    32   18   19 2
    33   19   23 1
    34   19   20 1
    35   20   21 2
    36   20   24 1
    37   21   22 1
    38   21   46 1
    39   22   23 2
    40   24   25 2
    41   24   26 am
    42   26   27 1
    43   27   32 ar
    44   27   28 ar
    45   28   29 ar
    46   28   47 1
    47   29   30 ar
    48   29   48 1
    49   30   31 ar
    50   30   33 1
    51   31   32 ar
    52   31   49 1
    53   32   50 1
@<TRIPOS>MOLECULE
ZINC06685232
   40    42     0     0     0
SMALL
USER_CHARGES
8,9-dimethyl-N-[1-(p-tolyl)ethylideneamino]-7-thia-3,5-diazabicyclo[4.3.0]nona-2,4,8,10-tetraen-2-amine
@<TRIPOS>ATOM
      1 C1          2.7165   -2.3177    4.6392 C.3       1 <0>        -0.1200
      2 C2          2.1235   -1.6825    3.4080 C.ar      1 <0>        -0.0690
      3 C3          2.1303   -2.3701    2.2072 C.ar      1 <0>        -0.1250
      4 C4          1.5889   -1.7951    1.0764 C.ar      1 <0>        -0.0735
      5 C5          1.0333   -0.5152    1.1453 C.ar      1 <0>        -0.0531
      6 C6          1.0355    0.1755    2.3596 C.ar      1 <0>        -0.0897
      7 C7          1.5745   -0.4146    3.4838 C.ar      1 <0>        -0.1249
      8 C8          0.4525    0.1062   -0.0593 C.2       1 <0>         0.1298
      9 N1          0.4568   -0.5363   -1.1872 N.2       1 <0>        -0.2205
     10 N2         -0.0950    0.0541   -2.3317 N.pl3     1 <0>        -0.5607
     11 C9         -0.0904   -0.6305   -3.5336 C.ar      1 <0>         0.5009
     12 C10        -0.1897    0.0753   -4.7649 C.ar      1 <0>        -0.2304
     13 C11        -0.2925    1.5025   -5.0119 C.2       1 <0>        -0.0965
     14 C12        -0.3692    1.9446   -6.2761 C.2       1 <0>        -0.1365
     15 S1         -0.3003    0.4496   -7.2451 S.3       1 <0>         0.1118
     16 C13        -0.1704   -0.7284   -5.9262 C.ar      1 <0>         0.1470
     17 N3         -0.0763   -2.0413   -5.8521 N.ar      1 <0>        -0.5120
     18 C14         0.0079   -2.6394   -4.6794 C.ar      1 <0>         0.3563
     19 N4          0.0009   -1.9509   -3.5524 N.ar      1 <0>        -0.5500
     20 C15        -0.4858    3.3665   -6.7616 C.3       1 <0>        -0.0708
     21 C16        -0.3185    2.4752   -3.8612 C.3       1 <0>        -0.1155
     22 C17        -0.1459    1.4870    0.0191 C.3       1 <0>        -0.1585
     23 H1          3.7738   -2.0615    4.7068 H         1 <0>         0.0737
     24 H2          2.1964   -1.9504    5.5239 H         1 <0>         0.0685
     25 H3          2.6082   -3.4005    4.5774 H         1 <0>         0.0688
     26 H4          2.5601   -3.3595    2.1554 H         1 <0>         0.1269
     27 H5          1.5942   -2.3332    0.1400 H         1 <0>         0.1355
     28 H6          0.6117    1.1671    2.4191 H         1 <0>         0.1291
     29 H7          1.5720    0.1160    4.4245 H         1 <0>         0.1273
     30 H8         -0.4802    0.9429   -2.2813 H         1 <0>         0.4019
     31 H9          0.0847   -3.7159   -4.6401 H         1 <0>         0.2117
     32 H10        -0.5265    3.3763   -7.8508 H         1 <0>         0.0783
     33 H11        -1.3949    3.8142   -6.3600 H         1 <0>         0.0844
     34 H12         0.3796    3.9374   -6.4251 H         1 <0>         0.0846
     35 H13        -1.3338    2.5504   -3.4718 H         1 <0>         0.0750
     36 H14         0.3477    2.1238   -3.0732 H         1 <0>         0.0655
     37 H15         0.0118    3.4550   -4.2062 H         1 <0>         0.0835
     38 H16         0.6240    2.2292   -0.1916 H         1 <0>         0.0889
     39 H17        -0.9480    1.5775   -0.7134 H         1 <0>         0.0648
     40 H18        -0.5467    1.6531    1.0191 H         1 <0>         0.0926
@<TRIPOS>BOND
     1    1    2 1
     2    1   23 1
     3    1   24 1
     4    1   25 1
     5    2    7 ar
     6    2    3 ar
     7    3    4 ar
     8    3   26 1
     9    4    5 ar
    10    4   27 1
    11    5    6 ar
    12    5    8 1
    13    6    7 ar
    14    6   28 1
    15    7   29 1
    16    8    9 2
    17    8   22 1
    18    9   10 1
    19   10   11 1
    20   10   30 1
    21   11   19 ar
    22   11   12 ar
    23   12   16 ar
    24   12   13 1
    25   13   14 2
    26   13   21 1
    27   14   15 1
    28   14   20 1
    29   15   16 1
    30   16   17 ar
    31   17   18 ar
    32   18   19 ar
    33   18   31 1
    34   20   32 1
    35   20   33 1
    36   20   34 1
    37   21   35 1
    38   21   36 1
    39   21   37 1
    40   22   38 1
    41   22   39 1
    42   22   40 1
@<TRIPOS>MOLECULE
ZINC24107409
   32    33     0     0     0
SMALL
USER_CHARGES
N-[(1S)-1-(2-chlorophenyl)ethyl]-4-fluoro-2-nitro-aniline
@<TRIPOS>ATOM
      1 C1          0.8607   -2.1823    0.7264 C.3       1 <0>        -0.1645
      2 C2          1.1525   -1.8451   -0.7372 C.3       1 <0>         0.1833
      3 H1          0.3814   -2.2641   -1.4004 H         1 <0>         0.0997
      4 C3          1.2126   -0.3487   -0.9056 C.ar      1 <0>        -0.0867
      5 C4          2.4197    0.3132   -0.7801 C.ar      1 <0>        -0.1041
      6 C5          2.4749    1.6857   -0.9336 C.ar      1 <0>        -0.1044
      7 C6          1.3230    2.3974   -1.2137 C.ar      1 <0>        -0.1031
      8 C7          0.1157    1.7369   -1.3394 C.ar      1 <0>        -0.1034
      9 C8          0.0598    0.3628   -1.1854 C.ar      1 <0>        -0.0276
     10 Cl1        -1.4564   -0.4677   -1.3437 Cl        1 <0>        -0.0618
     11 N1          2.4368   -2.4323   -1.1270 N.pl3     1 <0>        -0.7326
     12 C9          2.4957   -3.7611   -1.5583 C.ar      1 <0>         0.2816
     13 C10         1.3243   -4.4805   -1.7571 C.ar      1 <0>        -0.1732
     14 C11         1.3849   -5.7914   -2.1872 C.ar      1 <0>        -0.0507
     15 C12         2.6126   -6.3920   -2.4105 C.ar      1 <0>         0.0466
     16 C13         3.7815   -5.6783   -2.2084 C.ar      1 <0>        -0.0490
     17 C14         3.7256   -4.3653   -1.7828 C.ar      1 <0>        -0.0987
     18 N2          4.9757   -3.6029   -1.5669 N.pl3     1 <0>         0.0387
     19 O1          5.9183   -3.7517   -2.3238 O.2       1 <0>        -0.1401
     20 O2          5.0619   -2.8267   -0.6322 O.3       1 <0>        -0.1786
     21 F1          2.6696   -7.6763   -2.8259 F         1 <0>        -0.1275
     22 H2          0.8168   -3.2745    0.8493 H         1 <0>         0.0685
     23 H3         -0.1036   -1.7414    1.0190 H         1 <0>         0.0755
     24 H4          1.6591   -1.7734    1.3631 H         1 <0>         0.0701
     25 H5          3.3198   -0.2423   -0.5617 H         1 <0>         0.1314
     26 H6          3.4182    2.2023   -0.8354 H         1 <0>         0.1354
     27 H7          1.3669    3.4697   -1.3342 H         1 <0>         0.1369
     28 H8         -0.7832    2.2924   -1.5622 H         1 <0>         0.1384
     29 H9          3.3547   -1.8279   -1.0804 H         1 <0>         0.4312
     30 H10         0.3668   -4.0138   -1.5791 H         1 <0>         0.1548
     31 H11         0.4742   -6.3499   -2.3455 H         1 <0>         0.1552
     32 H12         4.7379   -6.1487   -2.3832 H         1 <0>         0.1588
@<TRIPOS>BOND
     1    1    2 1
     2    1   22 1
     3    1   23 1
     4    1   24 1
     5    2    3 1
     6    2    4 1
     7    2   11 1
     8    4    9 ar
     9    4    5 ar
    10    5    6 ar
    11    5   25 1
    12    6    7 ar
    13    6   26 1
    14    7    8 ar
    15    7   27 1
    16    8    9 ar
    17    8   28 1
    18    9   10 1
    19   11   12 1
    20   11   29 1
    21   12   17 ar
    22   12   13 ar
    23   13   14 ar
    24   13   30 1
    25   14   15 ar
    26   14   31 1
    27   15   16 ar
    28   15   21 1
    29   16   17 ar
    30   16   32 1
    31   17   18 1
    32   18   19 2
    33   18   20 1
@<TRIPOS>MOLECULE
ZINC37131252
   32    33     0     0     0
SMALL
USER_CHARGES

@<TRIPOS>ATOM
      1 C1         -0.0187    1.5258    0.0104 C.3       1 <0>        -0.1694
      2 C2          0.0021   -0.0041    0.0020 C.3       1 <0>         0.1759
      3 H1         -1.0205   -0.3814    0.0098 H         1 <0>         0.0892
      4 C3          0.7421   -0.5109    1.2415 C.3       1 <0>        -0.1446
      5 C4          0.0380   -1.5594    2.1051 C.3       1 <0>        -0.1696
      6 C5          0.1779   -0.1218    2.6095 C.3       1 <0>        -0.1607
      7 C6          2.2628   -0.6113    1.1071 C.3       1 <0>        -0.1219
      8 N1          0.6878   -0.4765   -1.2033 N.pl3     1 <0>        -0.7118
      9 C7         -0.0188   -0.6130   -2.4010 C.ar      1 <0>         0.2948
     10 C8         -1.3701   -0.2957   -2.4520 C.ar      1 <0>        -0.1946
     11 C9         -2.0656   -0.4312   -3.6374 C.ar      1 <0>         0.0109
     12 C10        -1.4185   -0.8827   -4.7732 C.ar      1 <0>        -0.1101
     13 C11        -0.0734   -1.1997   -4.7267 C.ar      1 <0>         0.0281
     14 C12         0.6300   -1.0610   -3.5453 C.ar      1 <0>        -0.1813
     15 Br1         2.4714   -1.4871   -3.4841 Br        1 <0>        -0.0201
     16 N2         -2.1677   -1.0275   -6.0414 N.pl3     1 <0>         0.0449
     17 O1         -3.3439   -0.7511   -6.0836 O.2       1 <0>        -0.1653
     18 O2         -1.6034   -1.4221   -7.0352 O.3       1 <0>        -0.1672
     19 H2          1.0039    1.9031    0.0027 H         1 <0>         0.0647
     20 H3         -0.5459    1.8868   -0.8726 H         1 <0>         0.0628
     21 H4         -0.5289    1.8773    0.9072 H         1 <0>         0.0739
     22 H5         -0.9524   -1.8882    1.7902 H         1 <0>         0.0968
     23 H6          0.6582   -2.3211    2.5776 H         1 <0>         0.0985
     24 H7          0.8902    0.0624    3.4137 H         1 <0>         0.1006
     25 H8         -0.7204    0.4953    2.6263 H         1 <0>         0.0990
     26 H9          2.6738    0.3737    0.8858 H         1 <0>         0.0653
     27 H10         2.6866   -0.9802    2.0412 H         1 <0>         0.0677
     28 H11         2.5116   -1.2988    0.2987 H         1 <0>         0.0590
     29 H12         1.6324   -0.6946   -1.1699 H         1 <0>         0.4107
     30 H13        -1.8765    0.0564   -1.5654 H         1 <0>         0.1535
     31 H14        -3.1163   -0.1846   -3.6775 H         1 <0>         0.1589
     32 H15         0.4288   -1.5520   -5.6155 H         1 <0>         0.1613
@<TRIPOS>BOND
     1    1    2 1
     2    1   19 1
     3    1   20 1
     4    1   21 1
     5    2    3 1
     6    2    4 1
     7    2    8 1
     8    4    6 1
     9    4    5 1
    10    4    7 1
    11    5    6 1
    12    5   22 1
    13    5   23 1
    14    6   24 1
    15    6   25 1
    16    7   26 1
    17    7   27 1
    18    7   28 1
    19    8    9 1
    20    8   29 1
    21    9   14 ar
    22    9   10 ar
    23   10   11 ar
    24   10   30 1
    25   11   12 ar
    26   11   31 1
    27   12   13 ar
    28   12   16 1
    29   13   14 ar
    30   13   32 1
    31   14   15 1
    32   16   17 2
    33   16   18 1
@<TRIPOS>MOLECULE
ZINC50442983
   35    36     0     0     0
SMALL
USER_CHARGES

@<TRIPOS>ATOM
      1 C1         -0.0184    1.5028    0.0103 C.3       1 <0>        -0.1072
      2 C2          0.0021   -0.0041    0.0020 C.ar      1 <0>        -0.1396
      3 C3          0.0057   -0.6874   -1.2004 C.ar      1 <0>        -0.0768
      4 C4          0.0244   -2.0681   -1.2116 C.ar      1 <0>        -0.1847
      5 C5          0.0396   -2.7708   -0.0132 C.ar      1 <0>         0.2190
      6 C6          0.0359   -2.0814    1.1925 C.ar      1 <0>        -0.1560
      7 C7          0.0229   -0.7002    1.1965 C.ar      1 <0>        -0.0735
      8 C8          0.0518   -2.8394    2.4949 C.3       1 <0>        -0.1046
      9 N1          0.0581   -4.1674   -0.0209 N.pl3     1 <0>        -0.7372
     10 C9          0.0614   -4.8929   -1.2936 C.3       1 <0>         0.1510
     11 C10         0.0824   -6.3759   -1.0264 C.ar      1 <0>        -0.0386
     12 C11         1.2718   -7.0761   -1.1087 C.ar      1 <0>        -0.0876
     13 C12         1.2917   -8.4359   -0.8634 C.ar      1 <0>        -0.0590
     14 C13         0.1211   -9.0967   -0.5353 C.ar      1 <0>        -0.0338
     15 C14        -1.0686   -8.3956   -0.4530 C.ar      1 <0>        -0.0499
     16 C15        -1.0863   -7.0344   -0.6936 C.ar      1 <0>        -0.0253
     17 N2         -2.3580   -6.2830   -0.5997 N.pl3     1 <0>         0.0302
     18 O1         -3.3803   -6.8590   -0.3085 O.2       1 <0>        -0.1566
     19 O2         -2.3744   -5.0933   -0.8141 O.3       1 <0>        -0.1285
     20 Cl1         0.1452  -10.8051   -0.2274 Cl        1 <0>        -0.0302
     21 H1          1.0042    1.8801    0.0026 H         1 <0>         0.0633
     22 H2         -0.5455    1.8639   -0.8728 H         1 <0>         0.0620
     23 H3         -0.5286    1.8543    0.9071 H         1 <0>         0.0613
     24 H4         -0.0065   -0.1406   -2.1317 H         1 <0>         0.1195
     25 H5          0.0269   -2.6011   -2.1509 H         1 <0>         0.1195
     26 H6          0.0244   -0.1634    2.1336 H         1 <0>         0.1193
     27 H7          1.0832   -3.0085    2.8043 H         1 <0>         0.0641
     28 H8         -0.4663   -2.2598    3.2590 H         1 <0>         0.0676
     29 H9         -0.4499   -3.7980    2.3635 H         1 <0>         0.0532
     30 H10         0.0687   -4.6569    0.8164 H         1 <0>         0.3958
     31 H11        -0.8348   -4.6383   -1.8594 H         1 <0>         0.1017
     32 H12         0.9450   -4.6147   -1.8681 H         1 <0>         0.0772
     33 H13         2.1853   -6.5603   -1.3652 H         1 <0>         0.1606
     34 H14         2.2207   -8.9829   -0.9281 H         1 <0>         0.1576
     35 H15        -1.9825   -8.9108   -0.1970 H         1 <0>         0.1661
@<TRIPOS>BOND
     1    1    2 1
     2    1   21 1
     3    1   22 1
     4    1   23 1
     5    2    7 ar
     6    2    3 ar
     7    3    4 ar
     8    3   24 1
     9    4    5 ar
    10    4   25 1
    11    5    6 ar
    12    5    9 1
    13    6    7 ar
    14    6    8 1
    15    7   26 1
    16    8   27 1
    17    8   28 1
    18    8   29 1
    19    9   10 1
    20    9   30 1
    21   10   11 1
    22   10   31 1
    23   10   32 1
    24   11   16 ar
    25   11   12 ar
    26   12   13 ar
    27   12   33 1
    28   13   14 ar
    29   13   34 1
    30   14   15 ar
    31   14   20 1
    32   15   16 ar
    33   15   35 1
    34   16   17 1
    35   17   18 2
    36   17   19 1
@<TRIPOS>MOLECULE
ZINC62140026
   31    32     0     0     0
SMALL
USER_CHARGES

@<TRIPOS>ATOM
      1 C1         -0.0167    1.3781    0.0096 C.ar      1 <0>        -0.1165
      2 C2          1.1709    2.0855    0.0021 C.ar      1 <0>        -0.0518
      3 C3          2.3773    1.4107   -0.0130 C.ar      1 <0>        -0.0517
      4 C4          2.3961    0.0285   -0.0201 C.ar      1 <0>        -0.0514
      5 C5          1.2084   -0.6789   -0.0117 C.ar      1 <0>        -0.1032
      6 C6          0.0021   -0.0041    0.0020 C.ar      1 <0>        -0.0273
      7 C7         -1.2926   -0.7753    0.0102 C.3       1 <0>        -0.1196
      8 C8         -1.7445   -1.0285   -1.4295 C.3       1 <0>         0.1575
      9 H1         -1.8070   -0.0800   -1.9628 H         1 <0>         0.1181
     10 C9         -3.0982   -1.6907   -1.4219 C.ar      1 <0>        -0.0953
     11 C10        -3.2021   -3.0478   -1.1814 C.ar      1 <0>        -0.0992
     12 C11        -4.4446   -3.6564   -1.1748 C.ar      1 <0>        -0.0188
     13 C12        -5.5831   -2.9063   -1.4086 C.ar      1 <0>        -0.1002
     14 C13        -5.4786   -1.5480   -1.6488 C.ar      1 <0>        -0.0196
     15 C14        -4.2359   -0.9396   -1.6500 C.ar      1 <0>        -0.0951
     16 Cl1        -6.9068   -0.6059   -1.9428 Cl        1 <0>        -0.0482
     17 Cl2        -4.5747   -5.3612   -0.8739 Cl        1 <0>        -0.0486
     18 O1         -0.8010   -1.8806   -2.0819 O.3       1 <0>        -0.5434
     19 N1          3.6490    2.1682   -0.0221 N.pl3     1 <0>         0.0322
     20 O2          3.6326    3.3771   -0.0163 O.2       1 <0>        -0.1579
     21 O3          4.7040    1.5780   -0.0353 O.3       1 <0>        -0.1571
     22 H2         -0.9591    1.9053    0.0259 H         1 <0>         0.1473
     23 H3          1.1563    3.1654    0.0076 H         1 <0>         0.1544
     24 H4          3.3385   -0.4987   -0.0326 H         1 <0>         0.1543
     25 H5          1.2231   -1.7588   -0.0179 H         1 <0>         0.1459
     26 H6         -1.1445   -1.7285    0.5175 H         1 <0>         0.0909
     27 H7         -2.0553   -0.1993    0.5344 H         1 <0>         0.0981
     28 H8         -2.3131   -3.6334   -0.9989 H         1 <0>         0.1390
     29 H9         -6.5532   -3.3810   -1.4039 H         1 <0>         0.1476
     30 H10        -4.1545    0.1216   -1.8331 H         1 <0>         0.1435
     31 H11        -0.6938   -2.7443   -1.6604 H         1 <0>         0.3760
@<TRIPOS>BOND
     1    1    6 ar
     2    1    2 ar
     3    1   22 1
     4    2    3 ar
     5    2   23 1
     6    3    4 ar
     7    3   19 1
     8    4    5 ar
     9    4   24 1
    10    5    6 ar
    11    5   25 1
    12    6    7 1
    13    7    8 1
    14    7   26 1
    15    7   27 1
    16    8    9 1
    17    8   10 1
    18    8   18 1
    19   10   15 ar
    20   10   11 ar
    21   11   12 ar
    22   11   28 1
    23   12   13 ar
    24   12   17 1
    25   13   14 ar
    26   13   29 1
    27   14   15 ar
    28   14   16 1
    29   15   30 1
    30   18   31 1
    31   19   20 2
    32   19   21 1
@<TRIPOS>MOLECULE
ZINC00195599
   38    41     0     0     0
SMALL
USER_CHARGES
(2-fluorophenyl)iminoBLAHcarboxamide
@<TRIPOS>ATOM
      1 C1          4.7877    1.5993   -0.0330 C.ar      1 <0>        -0.1211
      2 C2          4.8573    0.2096   -0.0382 C.ar      1 <0>        -0.0861
      3 C3          3.7220   -0.5479   -0.0380 C.ar      1 <0>        -0.1212
      4 C4          2.4729    0.0785   -0.0318 C.ar      1 <0>         0.0070
      5 C5          2.3977    1.4921   -0.0260 C.ar      1 <0>        -0.0805
      6 C6          3.5855    2.2411   -0.0276 C.ar      1 <0>        -0.0859
      7 C7          1.1377    2.1207   -0.0184 C.ar      1 <0>        -0.0258
      8 C8         -0.0090    1.3933   -0.0081 C.ar      1 <0>        -0.1419
      9 C9          0.0070   -0.0032   -0.0091 C.ar      1 <0>         0.1729
     10 C10         1.2280   -0.6915   -0.0337 C.ar      1 <0>        -0.1620
     11 C11         1.2507   -2.1021   -0.0666 C.2       1 <0>         0.0668
     12 C12         0.0512   -2.7725   -0.2821 C.2       1 <0>        -0.2058
     13 C13        -1.1526   -1.9454   -0.4929 C.2       1 <0>         0.4047
     14 N1         -2.1839   -2.4025   -1.1709 N.2       1 <0>        -0.4869
     15 C14        -3.3277   -1.6576   -1.2610 C.ar      1 <0>         0.0637
     16 C15        -4.2952   -1.7330   -0.2566 C.ar      1 <0>        -0.1006
     17 C16        -5.4443   -0.9754   -0.3514 C.ar      1 <0>        -0.1117
     18 C17        -5.6451   -0.1493   -1.4432 C.ar      1 <0>        -0.0988
     19 C18        -4.6943   -0.0722   -2.4456 C.ar      1 <0>        -0.1387
     20 C19        -3.5367   -0.8210   -2.3623 C.ar      1 <0>         0.0877
     21 F1         -2.6093   -0.7459   -3.3418 F         1 <0>        -0.1338
     22 O1         -1.1576   -0.6955    0.0376 O.3       1 <0>        -0.2578
     23 C20        -0.0147   -4.2423   -0.2988 C.2       1 <0>         0.5864
     24 O2          0.9943   -4.8984   -0.1216 O.2       1 <0>        -0.5447
     25 N2         -1.1928   -4.8617   -0.5104 N.am      1 <0>        -0.8397
     26 H1          5.6997    2.1778   -0.0337 H         1 <0>         0.1308
     27 H2          5.8220   -0.2759   -0.0428 H         1 <0>         0.1325
     28 H3          3.7886   -1.6258   -0.0423 H         1 <0>         0.1348
     29 H4          3.5466    3.3204   -0.0246 H         1 <0>         0.1352
     30 H5          1.0823    3.1993   -0.0211 H         1 <0>         0.1475
     31 H6         -0.9583    1.9083   -0.0035 H         1 <0>         0.1449
     32 H7          2.1736   -2.6458    0.0714 H         1 <0>         0.1676
     33 H8         -4.1426   -2.3805    0.5942 H         1 <0>         0.1339
     34 H9         -6.1912   -1.0304    0.4267 H         1 <0>         0.1350
     35 H10        -6.5487    0.4381   -1.5134 H         1 <0>         0.1359
     36 H11        -4.8579    0.5745   -3.2950 H         1 <0>         0.1391
     37 H12        -1.9973   -4.3386   -0.6517 H         1 <0>         0.4123
     38 H13        -1.2362   -5.8307   -0.5214 H         1 <0>         0.4045
@<TRIPOS>BOND
     1    1    6 ar
     2    1    2 ar
     3    1   26 1
     4    2    3 ar
     5    2   27 1
     6    3    4 ar
     7    3   28 1
     8    4   10 ar
     9    4    5 ar
    10    5    6 ar
    11    5    7 ar
    12    6   29 1
    13    7    8 ar
    14    7   30 1
    15    8    9 ar
    16    8   31 1
    17    9   22 1
    18    9   10 ar
    19   10   11 1
    20   11   12 2
    21   11   32 1
    22   12   13 1
    23   12   23 1
    24   13   14 2
    25   13   22 1
    26   14   15 1
    27   15   20 ar
    28   15   16 ar
    29   16   17 ar
    30   16   33 1
    31   17   18 ar
    32   17   34 1
    33   18   19 ar
    34   18   35 1
    35   19   20 ar
    36   19   36 1
    37   20   21 1
    38   23   24 2
    39   23   25 am
    40   25   37 1
    41   25   38 1
@<TRIPOS>MOLECULE
ZINC24879701
   52    55     0     0     0
SMALL
USER_CHARGES
(4-tert-butylphenyl)methylBLAHamine
@<TRIPOS>ATOM
      1 C1          2.8924    9.2244   -4.5708 C.3       1 <0>        -0.1405
      2 C2          3.4192    7.8548   -4.1379 C.3       1 <0>        -0.0304
      3 C3          4.8061    8.0162   -3.5124 C.3       1 <0>        -0.1463
      4 C4          3.5135    6.9359   -5.3576 C.3       1 <0>        -0.1406
      5 C5          2.4790    7.2518   -3.1262 C.ar      1 <0>        -0.0668
      6 C6          1.1608    7.0106   -3.4655 C.ar      1 <0>        -0.1159
      7 C7          0.2986    6.4567   -2.5378 C.ar      1 <0>        -0.0937
      8 C8          0.7547    6.1435   -1.2710 C.ar      1 <0>        -0.0848
      9 C9          2.0715    6.3895   -0.9301 C.ar      1 <0>        -0.1131
     10 C10         2.9348    6.9394   -1.8591 C.ar      1 <0>        -0.1222
     11 C11        -0.1853    5.5395   -0.2596 C.3       1 <0>         0.0923
     12 N1         -0.1465    4.0751   -0.3685 N.3       1 <0>        -0.5263
     13 C12        -1.2019    3.4574    0.4499 C.3       1 <0>         0.0505
     14 C13        -1.3614    1.9995    0.0194 C.3       1 <0>        -0.0682
     15 C14        -0.0158    1.3147    0.0093 C.ar      1 <0>         0.2140
     16 C15         1.1638    2.0480    0.0019 C.ar      1 <0>        -0.1597
     17 C16         2.3711    1.3976   -0.0191 C.ar      1 <0>        -0.0238
     18 C17         2.3774   -0.0051   -0.0295 C.ar      1 <0>        -0.2068
     19 C18         3.5808   -0.7376   -0.0519 C.ar      1 <0>        -0.0092
     20 C19         3.5072   -2.0982   -0.0614 C.ar      1 <0>        -0.2233
     21 C20         2.2539   -2.7276   -0.0484 C.ar      1 <0>         0.4570
     22 N2          1.1332   -2.0350   -0.0265 N.ar      1 <0>        -0.5535
     23 C21         1.1417   -0.6973   -0.0176 C.ar      1 <0>         0.3714
     24 N3          0.0021   -0.0041    0.0020 N.ar      1 <0>        -0.4902
     25 N4          2.1928   -4.1115   -0.0577 N.pl3     1 <0>        -0.8613
     26 C22         1.1673    3.5538    0.0215 C.3       1 <0>         0.1001
     27 H1          1.8953    9.1083   -5.0205 H         1 <0>         0.0575
     28 H2          3.5787    9.6645   -5.3092 H         1 <0>         0.0591
     29 H3          2.8245    9.8850   -3.6939 H         1 <0>         0.0566
     30 H4          5.1848    7.0315   -3.2012 H         1 <0>         0.0586
     31 H5          4.7382    8.6768   -2.6355 H         1 <0>         0.0589
     32 H6          5.4924    8.4563   -4.2508 H         1 <0>         0.0589
     33 H7          3.8923    5.9512   -5.0464 H         1 <0>         0.0564
     34 H8          4.1997    7.3761   -6.0961 H         1 <0>         0.0590
     35 H9          2.5163    6.8199   -5.8072 H         1 <0>         0.0576
     36 H10         0.8046    7.2547   -4.4554 H         1 <0>         0.1199
     37 H11        -0.7313    6.2683   -2.8028 H         1 <0>         0.1220
     38 H12         2.4268    6.1489    0.0611 H         1 <0>         0.1168
     39 H13         3.9648    7.1276   -1.5942 H         1 <0>         0.1249
     40 H14         0.1228    5.8402    0.7527 H         1 <0>         0.0461
     41 H15        -1.2085    5.8945   -0.4521 H         1 <0>         0.0891
     42 H16        -0.9181    3.5057    1.5116 H         1 <0>         0.0438
     43 H17        -2.1475    3.9985    0.2982 H         1 <0>         0.0905
     44 H18        -2.0270    1.4798    0.7243 H         1 <0>         0.0958
     45 H19        -1.7951    1.9608   -0.9908 H         1 <0>         0.0994
     46 H20         3.2971    1.9535   -0.0271 H         1 <0>         0.1373
     47 H21         4.5361   -0.2341   -0.0610 H         1 <0>         0.1412
     48 H22         4.4107   -2.6897   -0.0792 H         1 <0>         0.1378
     49 H23         1.2169   -4.6190   -0.0477 H         1 <0>         0.4298
     50 H24         3.1201   -4.7029   -0.0751 H         1 <0>         0.4318
     51 H25         1.9301    3.9187   -0.6821 H         1 <0>         0.0937
     52 H26         1.4113    3.8975    1.0375 H         1 <0>         0.0488
@<TRIPOS>BOND
     1    1    2 1
     2    1   27 1
     3    1   28 1
     4    1   29 1
     5    2    3 1
     6    2    4 1
     7    2    5 1
     8    3   30 1
     9    3   31 1
    10    3   32 1
    11    4   33 1
    12    4   34 1
    13    4   35 1
    14    5   10 ar
    15    5    6 ar
    16    6    7 ar
    17    6   36 1
    18    7    8 ar
    19    7   37 1
    20    8    9 ar
    21    8   11 1
    22    9   10 ar
    23    9   38 1
    24   10   39 1
    25   11   12 1
    26   11   40 1
    27   11   41 1
    28   12   26 1
    29   12   13 1
    30   13   14 1
    31   13   42 1
    32   13   43 1
    33   14   15 1
    34   14   44 1
    35   14   45 1
    36   15   24 ar
    37   15   16 ar
    38   16   17 ar
    39   16   26 1
    40   17   18 ar
    41   17   46 1
    42   18   23 ar
    43   18   19 ar
    44   19   20 ar
    45   19   47 1
    46   20   21 ar
    47   20   48 1
    48   21   22 ar
    49   21   25 1
    50   22   23 ar
    51   23   24 ar
    52   25   49 1
    53   25   50 1
    54   26   51 1
    55   26   52 1
@<TRIPOS>MOLECULE
ZINC40103533
   34    35     0     0     0
SMALL
USER_CHARGES

@<TRIPOS>ATOM
      1 C1         -0.0546    1.4951    0.0681 C.3       1 <0>        -0.0768
      2 C2         -0.0268   -0.0115    0.0493 C.2       1 <0>        -0.0047
      3 C3         -1.1032   -0.8182    0.0496 C.2       1 <0>        -0.2121
      4 C4         -0.6195   -2.1466    0.0288 C.2       1 <0>        -0.1827
      5 C5          0.7235   -2.0721    0.0170 C.2       1 <0>        -0.0350
      6 O1          1.0768   -0.7764    0.0237 O.3       1 <0>        -0.1733
      7 C6          1.6709   -3.2439   -0.0055 C.3       1 <0>         0.2510
      8 H1          1.1517   -4.1376    0.3404 H         1 <0>         0.1203
      9 C7          2.1730   -3.4663   -1.4336 C.3       1 <0>        -0.1660
     10 N1          2.8090   -2.9686    0.8749 N.am      1 <0>        -0.7337
     11 C8          3.5044   -3.9884    1.4162 C.2       1 <0>         0.7108
     12 O2          3.1871   -5.1369    1.1737 O.2       1 <0>        -0.5632
     13 N2          4.5514   -3.7353    2.2261 N.am      1 <0>        -0.6792
     14 C9          5.2002   -4.7889    2.8819 C.ar      1 <0>         0.1987
     15 C10         4.5214   -5.9730    3.1363 C.ar      1 <0>        -0.1155
     16 C11         5.1637   -7.0109    3.7828 C.ar      1 <0>        -0.0600
     17 C12         6.4825   -6.8717    4.1776 C.ar      1 <0>        -0.1041
     18 C13         7.1620   -5.6932    3.9263 C.ar      1 <0>        -0.0574
     19 C14         6.5262   -4.6534    3.2741 C.ar      1 <0>        -0.0704
     20 Cl1         7.3811   -3.1771    2.9525 Cl        1 <0>        -0.0536
     21 Br1         7.3577   -8.2951    5.0630 Br        1 <0>        -0.0361
     22 H2          0.9661    1.8775    0.0581 H         1 <0>         0.0763
     23 H3         -0.5878    1.8596   -0.8100 H         1 <0>         0.0877
     24 H4         -0.5622    1.8380    0.9697 H         1 <0>         0.0874
     25 H5         -2.1383   -0.5103    0.0637 H         1 <0>         0.1511
     26 H6         -1.2142   -3.0480    0.0236 H         1 <0>         0.1521
     27 H7          2.6922   -2.5726   -1.7796 H         1 <0>         0.0627
     28 H8          2.8583   -4.3138   -1.4499 H         1 <0>         0.0746
     29 H9          1.3262   -3.6711   -2.0887 H         1 <0>         0.0754
     30 H10         3.0621   -2.0524    1.0683 H         1 <0>         0.4043
     31 H11         4.8556   -2.8232    2.3549 H         1 <0>         0.4124
     32 H12         3.4918   -6.0823    2.8291 H         1 <0>         0.1667
     33 H13         4.6357   -7.9320    3.9807 H         1 <0>         0.1443
     34 H14         8.1911   -5.5870    4.2362 H         1 <0>         0.1480
@<TRIPOS>BOND
     1    1    2 1
     2    1   22 1
     3    1   23 1
     4    1   24 1
     5    2    6 1
     6    2    3 2
     7    3    4 1
     8    3   25 1
     9    4    5 2
    10    4   26 1
    11    5    6 1
    12    5    7 1
    13    7    8 1
    14    7    9 1
    15    7   10 1
    16    9   27 1
    17    9   28 1
    18    9   29 1
    19   10   11 am
    20   10   30 1
    21   11   12 2
    22   11   13 am
    23   13   14 1
    24   13   31 1
    25   14   19 ar
    26   14   15 ar
    27   15   16 ar
    28   15   32 1
    29   16   17 ar
    30   16   33 1
    31   17   18 ar
    32   17   21 1
    33   18   19 ar
    34   18   34 1
    35   19   20 1
@<TRIPOS>MOLECULE
ZINC04109067
   50    53     0     0     0
SMALL
USER_CHARGES

@<TRIPOS>ATOM
      1 C1         -0.0187    1.5258    0.0104 C.3       1 <0>        -0.1573
      2 C2          0.0021   -0.0041    0.0020 C.3       1 <0>        -0.1163
      3 C3          0.7421   -0.5109    1.2415 C.3       1 <0>        -0.0572
      4 C4          2.1775    0.0187    1.2307 C.3       1 <0>        -0.1471
      5 C5          0.0259   -0.0175    2.5003 C.3       1 <0>        -0.1500
      6 C6          0.7628   -2.0407    1.2331 C.3       1 <0>        -0.0681
      7 H1          1.2727   -2.3941    0.3369 H         1 <0>         0.0748
      8 C7          1.4976   -2.5507    2.4762 C.3       1 <0>        -0.1185
      9 C8          1.7403   -4.0566    2.3565 C.3       1 <0>        -0.0567
     10 C9          0.4186   -4.7411    2.0377 C.2       1 <0>        -0.0315
     11 C10        -0.6310   -4.0417    1.5488 C.2       1 <0>        -0.2150
     12 S1         -1.9172   -5.2427    1.3404 S.3       1 <0>         0.1999
     13 C11        -1.1159   -6.5961    1.8649 C.2       1 <0>         0.0951
     14 C12         0.1648   -6.1583    2.2219 C.2       1 <0>        -0.2532
     15 C13         1.1131   -7.1725    2.7505 C.2       1 <0>         0.4671
     16 N1          0.7908   -8.4306    2.6174 N.2       1 <0>        -0.6447
     17 C14        -0.4021   -8.9097    1.9307 C.3       1 <0>         0.3982
     18 H2         -0.7409   -9.8300    2.4063 H         1 <0>         0.1230
     19 N2         -1.4906   -7.9164    1.9748 N.pl3     1 <0>        -0.7058
     20 C15        -0.0590   -9.1976    0.4918 C.ar      1 <0>        -0.0757
     21 C16        -1.0111   -9.0584   -0.5065 C.ar      1 <0>        -0.1562
     22 C17        -0.6599   -9.3315   -1.8149 C.ar      1 <0>         0.0971
     23 N3          0.5632   -9.7203   -2.1179 N.ar      1 <0>        -0.4816
     24 C18         1.4940   -9.8634   -1.1949 C.ar      1 <0>         0.0961
     25 C19         1.2179   -9.6025    0.1339 C.ar      1 <0>        -0.1432
     26 O1          2.2700   -6.8052    3.3483 O.3       1 <0>        -0.4517
     27 C20        -0.6770   -2.5749    1.2504 C.3       1 <0>        -0.0289
     28 H3          1.0039    1.9031    0.0027 H         1 <0>         0.0566
     29 H4         -0.5459    1.8868   -0.8726 H         1 <0>         0.0512
     30 H5         -0.5289    1.8773    0.9072 H         1 <0>         0.0570
     31 H6         -1.0205   -0.3814    0.0098 H         1 <0>         0.0634
     32 H7          0.5123   -0.3556   -0.8948 H         1 <0>         0.0612
     33 H8          2.1627    1.1086    1.2367 H         1 <0>         0.0588
     34 H9          2.7046   -0.3424    2.1137 H         1 <0>         0.0586
     35 H10         2.6876   -0.3328    0.3339 H         1 <0>         0.0543
     36 H11        -0.9967   -0.3948    2.5081 H         1 <0>         0.0576
     37 H12         0.5531   -0.3786    3.3834 H         1 <0>         0.0576
     38 H13         0.0111    1.0724    2.5063 H         1 <0>         0.0579
     39 H14         2.4540   -2.0360    2.5680 H         1 <0>         0.0745
     40 H15         0.8937   -2.3505    3.3613 H         1 <0>         0.0679
     41 H16         2.4541   -4.2493    1.5556 H         1 <0>         0.0755
     42 H17         2.1324   -4.4397    3.2986 H         1 <0>         0.0851
     43 H18        -2.4190   -8.1784    2.0759 H         1 <0>         0.4169
     44 H19        -2.0147   -8.7410   -0.2645 H         1 <0>         0.1302
     45 H20        -1.3958   -9.2254   -2.5983 H         1 <0>         0.1562
     46 H21         2.4847  -10.1842   -1.4812 H         1 <0>         0.1570
     47 H22         1.9858   -9.7168    0.8847 H         1 <0>         0.1409
     48 H23         2.8084   -7.5484    3.6533 H         1 <0>         0.4067
     49 H24        -1.2497   -2.0623    2.0232 H         1 <0>         0.0843
     50 H25        -1.1415   -2.4102    0.2781 H         1 <0>         0.0779
@<TRIPOS>BOND
     1    1    2 1
     2    1   28 1
     3    1   29 1
     4    1   30 1
     5    2    3 1
     6    2   31 1
     7    2   32 1
     8    3    4 1
     9    3    5 1
    10    3    6 1
    11    4   33 1
    12    4   34 1
    13    4   35 1
    14    5   36 1
    15    5   37 1
    16    5   38 1
    17    6    7 1
    18    6   27 1
    19    6    8 1
    20    8    9 1
    21    8   39 1
    22    8   40 1
    23    9   10 1
    24    9   41 1
    25    9   42 1
    26   10   14 1
    27   10   11 2
    28   11   12 1
    29   11   27 1
    30   12   13 1
    31   13   19 1
    32   13   14 2
    33   14   15 1
    34   15   16 2
    35   15   26 1
    36   16   17 1
    37   17   18 1
    38   17   19 1
    39   17   20 1
    40   19   43 1
    41   20   25 ar
    42   20   21 ar
    43   21   22 ar
    44   21   44 1
    45   22   23 ar
    46   22   45 1
    47   23   24 ar
    48   24   25 ar
    49   24   46 1
    50   25   47 1
    51   26   48 1
    52   27   49 1
    53   27   50 1
@<TRIPOS>MOLECULE
ZINC61382587
   38    41     0     0     0
SMALL
USER_CHARGES

@<TRIPOS>ATOM
      1 C1         -0.0669    1.0570    0.1894 C.2       1 <0>        -0.1967
      2 C2          1.2312    1.5988    0.1097 C.2       1 <0>        -0.1814
      3 C3          2.0974    0.5664    0.0629 C.2       1 <0>         0.0102
      4 N1          1.3815   -0.5931    0.1108 N.pl3     1 <0>        -0.5484
      5 H1          1.7541   -1.4885    0.0925 H         1 <0>         0.4060
      6 C4          0.0554   -0.2859    0.1883 C.2       1 <0>        -0.0099
      7 C5          3.5977    0.6752   -0.0272 C.3       1 <0>         0.2113
      8 C6          4.2108    0.6648    1.3890 C.3       1 <0>        -0.1231
      9 C7          5.4991   -0.1797    1.2037 C.3       1 <0>        -0.1302
     10 C8          5.0372   -1.2269    0.1598 C.3       1 <0>         0.0780
     11 N2          4.1410   -0.4862   -0.7466 N.am      1 <0>        -0.6208
     12 C9          3.8650   -0.8189   -2.0232 C.2       1 <0>         0.5911
     13 O1          3.0864   -0.1462   -2.6725 O.2       1 <0>        -0.4773
     14 C10         4.5042   -1.9935   -2.6306 C.2       1 <0>         0.0327
     15 C11         4.4265   -2.3441   -3.9426 C.2       1 <0>        -0.0282
     16 C12         5.1785   -3.5325   -4.1165 C.ar      1 <0>        -0.1024
     17 C13         5.4544   -4.3417   -5.2263 C.ar      1 <0>        -0.0438
     18 C14         6.2317   -5.4545   -5.0790 C.ar      1 <0>        -0.0567
     19 C15         6.7534   -5.7933   -3.8356 C.ar      1 <0>        -0.0708
     20 C16         6.4955   -5.0138   -2.7306 C.ar      1 <0>        -0.1164
     21 C17         5.7059   -3.8740   -2.8563 C.ar      1 <0>         0.1231
     22 N3          5.2867   -2.9173   -1.9612 N.pl3     1 <0>        -0.5739
     23 H2          5.5025   -2.8952   -1.0158 H         1 <0>         0.4259
     24 Cl1         6.5712   -6.4553   -6.4562 Cl        1 <0>        -0.0618
     25 Cl2         3.5610   -1.4896   -5.1814 Cl        1 <0>        -0.0039
     26 H3         -0.9900    1.6148    0.2458 H         1 <0>         0.1355
     27 H4          1.4858    2.6482    0.0894 H         1 <0>         0.1344
     28 H5         -0.7569   -0.9957    0.2404 H         1 <0>         0.1620
     29 H6          3.8721    1.5939   -0.5457 H         1 <0>         0.1014
     30 H7          4.4560    1.6770    1.7105 H         1 <0>         0.0947
     31 H8          3.5350    0.1868    2.0982 H         1 <0>         0.0825
     32 H9          6.3130    0.4301    0.8116 H         1 <0>         0.0853
     33 H10         5.7886   -0.6608    2.1380 H         1 <0>         0.0929
     34 H11         5.8934   -1.6182   -0.3896 H         1 <0>         0.0794
     35 H12         4.4967   -2.0373    0.6489 H         1 <0>         0.0751
     36 H13         5.0530   -4.0861   -6.1958 H         1 <0>         0.1413
     37 H14         7.3665   -6.6768   -3.7356 H         1 <0>         0.1442
     38 H15         6.9052   -5.2852   -1.7689 H         1 <0>         0.1385
@<TRIPOS>BOND
     1    1    6 2
     2    1    2 1
     3    1   26 1
     4    2    3 2
     5    2   27 1
     6    3    4 1
     7    3    7 1
     8    4    5 1
     9    4    6 1
    10    6   28 1
    11    7   11 1
    12    7    8 1
    13    7   29 1
    14    8    9 1
    15    8   30 1
    16    8   31 1
    17    9   10 1
    18    9   32 1
    19    9   33 1
    20   10   11 1
    21   10   34 1
    22   10   35 1
    23   11   12 am
    24   12   13 2
    25   12   14 1
    26   14   22 1
    27   14   15 2
    28   15   16 1
    29   15   25 1
    30   16   21 ar
    31   16   17 ar
    32   17   18 ar
    33   17   36 1
    34   18   19 ar
    35   18   24 1
    36   19   20 ar
    37   19   37 1
    38   20   21 ar
    39   20   38 1
    40   21   22 1
    41   22   23 1
@<TRIPOS>MOLECULE
ZINC05457777
   32    34     0     0     0
SMALL
USER_CHARGES
2-(6-chlorobenzotriazol-1-yl)oxy-N-(2-chloro-4-fluoro-phenyl)-acetamide
@<TRIPOS>ATOM
      1 C1          7.2637    8.7085    0.3598 C.ar      1 <0>        -0.1269
      2 C2          6.8966    7.3805    0.4619 C.ar      1 <0>        -0.0789
      3 C3          7.6709    6.3989   -0.1408 C.ar      1 <0>         0.1427
      4 C4          8.8177    6.7539   -0.8411 C.ar      1 <0>        -0.0331
      5 C5          9.1781    8.0838   -0.9450 C.ar      1 <0>        -0.1270
      6 C6          8.4034    9.0611   -0.3426 C.ar      1 <0>         0.1061
      7 F1          8.7602   10.3604   -0.4409 F         1 <0>        -0.1280
      8 Cl1         9.7926    5.5283   -1.5902 Cl        1 <0>        -0.0449
      9 N1          7.3003    5.0519   -0.0384 N.am      1 <0>        -0.6599
     10 C7          5.9965    4.7111   -0.0223 C.2       1 <0>         0.5316
     11 O1          5.1441    5.5740   -0.0144 O.2       1 <0>        -0.4911
     12 C8          5.5976    3.2578   -0.0142 C.3       1 <0>         0.0143
     13 O2          4.1723    3.1552    0.0027 O.3       1 <0>        -0.0786
     14 N2          3.6909    1.8236    0.0116 N.pl3     1 <0>        -0.2630
     15 C9          2.3755    1.4245    0.0284 C.ar      1 <0>         0.1255
     16 C10         1.1610    2.1020    0.0425 C.ar      1 <0>        -0.1062
     17 C11        -0.0177    1.3890    0.0587 C.ar      1 <0>         0.0173
     18 C12         0.0007   -0.0012    0.0612 C.ar      1 <0>        -0.1208
     19 C13         1.1817   -0.6828    0.0480 C.ar      1 <0>        -0.0154
     20 C14         2.3944    0.0190    0.0314 C.ar      1 <0>        -0.0064
     21 N3          3.6845   -0.3726    0.0166 N.2       1 <0>        -0.1895
     22 N4          4.4623    0.6519    0.0049 N.2       1 <0>        -0.0070
     23 Cl2        -1.5355    2.2316    0.0689 Cl        1 <0>        -0.0406
     24 H1          6.6611    9.4723    0.8288 H         1 <0>         0.1503
     25 H2          6.0077    7.1063    1.0107 H         1 <0>         0.1602
     26 H3         10.0670    8.3609   -1.4922 H         1 <0>         0.1543
     27 H4          7.9821    4.3644    0.0209 H         1 <0>         0.4198
     28 H5          6.0073    2.7736    0.8723 H         1 <0>         0.1169
     29 H6          5.9864    2.7693   -0.9076 H         1 <0>         0.1173
     30 H7          1.1419    3.1818    0.0403 H         1 <0>         0.1504
     31 H8         -0.9309   -0.5475    0.0740 H         1 <0>         0.1539
     32 H9          1.1824   -1.7628    0.0501 H         1 <0>         0.1567
@<TRIPOS>BOND
     1    1    6 ar
     2    1    2 ar
     3    1   24 1
     4    2    3 ar
     5    2   25 1
     6    3    4 ar
     7    3    9 1
     8    4    5 ar
     9    4    8 1
    10    5    6 ar
    11    5   26 1
    12    6    7 1
    13    9   10 am
    14    9   27 1
    15   10   11 2
    16   10   12 1
    17   12   13 1
    18   12   28 1
    19   12   29 1
    20   13   14 1
    21   14   22 1
    22   14   15 1
    23   15   20 ar
    24   15   16 ar
    25   16   17 ar
    26   16   30 1
    27   17   18 ar
    28   17   23 1
    29   18   19 ar
    30   18   31 1
    31   19   20 ar
    32   19   32 1
    33   20   21 1
    34   21   22 2
@<TRIPOS>MOLECULE
ZINC20367466
   48    51     0     0     0
SMALL
USER_CHARGES
(5S)-5-methyl-N-[1-(p-tolylmethyl)pyrazol-3-yl]-4,5,6,7-tetrahydro-1,2-benzoxazole-3-carboxamide
@<TRIPOS>ATOM
      1 C1         -5.0705   -3.0920    4.5002 C.3       1 <0>        -0.1206
      2 C2         -4.1273   -3.1498    3.3263 C.ar      1 <0>        -0.0737
      3 C3         -4.5001   -2.6032    2.1125 C.ar      1 <0>        -0.1244
      4 C4         -3.6345   -2.6554    1.0360 C.ar      1 <0>        -0.0781
      5 C5         -2.3960   -3.2538    1.1733 C.ar      1 <0>        -0.1185
      6 C6         -2.0253   -3.8050    2.3856 C.ar      1 <0>        -0.0949
      7 C7         -2.8891   -3.7490    3.4633 C.ar      1 <0>        -0.1260
      8 C8         -1.4523   -3.3106   -0.0003 C.3       1 <0>         0.1774
      9 N1         -0.6029   -2.1170   -0.0022 N.pl3     1 <0>        -0.3596
     10 C9          0.7467   -2.1044   -0.0156 C.2       1 <0>         0.0638
     11 C10         1.1495   -0.8135   -0.0133 C.2       1 <0>        -0.2681
     12 C11         0.0021   -0.0041    0.0020 C.2       1 <0>         0.2977
     13 N2         -1.0493   -0.7894    0.0136 N.2       1 <0>        -0.3089
     14 N3         -0.0169    1.3964    0.0097 N.am      1 <0>        -0.6361
     15 C12         1.1410    2.0861    0.0024 C.2       1 <0>         0.6152
     16 O1          2.2014    1.4929   -0.0109 O.2       1 <0>        -0.4948
     17 C13         1.1209    3.5689    0.0105 C.2       1 <0>        -0.0153
     18 C14         2.2329    4.4356    0.0103 C.2       1 <0>        -0.1499
     19 C15         1.6962    5.6784    0.0160 C.2       1 <0>        -0.0293
     20 O2          0.3735    5.5225    0.0288 O.3       1 <0>         0.1326
     21 N4          0.0621    4.3488    0.0253 N.2       1 <0>        -0.3364
     22 C16         2.5138    6.9431    0.0111 C.3       1 <0>        -0.0390
     23 C17         3.9423    6.5921   -0.4248 C.3       1 <0>        -0.1159
     24 C18         4.4577    5.4085    0.3985 C.3       1 <0>        -0.0953
     25 H1          4.2958    5.6094    1.4678 H         1 <0>         0.0772
     26 C19         3.7028    4.1344   -0.0071 C.3       1 <0>        -0.0425
     27 C20         5.9535    5.2193    0.1383 C.3       1 <0>        -0.1490
     28 H2         -5.9978   -2.5818    4.2007 H         1 <0>         0.0669
     29 H3         -4.5969   -2.5380    5.3241 H         1 <0>         0.0712
     30 H4         -5.3052   -4.1140    4.8326 H         1 <0>         0.0720
     31 H5         -5.4674   -2.1350    2.0054 H         1 <0>         0.1238
     32 H6         -3.9257   -2.2283    0.0877 H         1 <0>         0.1239
     33 H7         -1.0594   -4.2764    2.4916 H         1 <0>         0.1212
     34 H8         -2.5977   -4.1757    4.4117 H         1 <0>         0.1233
     35 H9         -0.8223   -4.2088    0.0790 H         1 <0>         0.1087
     36 H10        -2.0312   -3.3501   -0.9348 H         1 <0>         0.0947
     37 H11         1.3906   -2.9714   -0.0261 H         1 <0>         0.1781
     38 H12         2.1723   -0.4665   -0.0221 H         1 <0>         0.1710
     39 H13        -0.9769    1.9334    0.0217 H         1 <0>         0.4474
     40 H14         2.0710    7.6632   -0.6927 H         1 <0>         0.0976
     41 H15         2.5239    7.3771    1.0218 H         1 <0>         0.0989
     42 H16         3.9444    6.3226   -1.4913 H         1 <0>         0.0734
     43 H17         4.5983    7.4604   -0.2648 H         1 <0>         0.0857
     44 H18         3.9194    3.3237    0.7042 H         1 <0>         0.0909
     45 H19         4.0015    3.8237   -1.0192 H         1 <0>         0.0863
     46 H20         6.3239    4.3690    0.7297 H         1 <0>         0.0598
     47 H21         6.4946    6.1317    0.4293 H         1 <0>         0.0596
     48 H22         6.1174    5.0211   -0.9312 H         1 <0>         0.0583
@<TRIPOS>BOND
     1    1    2 1
     2    1   28 1
     3    1   29 1
     4    1   30 1
     5    2    7 ar
     6    2    3 ar
     7    3    4 ar
     8    3   31 1
     9    4    5 ar
    10    4   32 1
    11    5    6 ar
    12    5    8 1
    13    6    7 ar
    14    6   33 1
    15    7   34 1
    16    8    9 1
    17    8   35 1
    18    8   36 1
    19    9   13 1
    20    9   10 1
    21   10   11 2
    22   10   37 1
    23   11   12 1
    24   11   38 1
    25   12   13 2
    26   12   14 1
    27   14   15 am
    28   14   39 1
    29   15   16 2
    30   15   17 1
    31   17   21 2
    32   17   18 1
    33   18   26 1
    34   18   19 2
    35   19   20 1
    36   19   22 1
    37   20   21 1
    38   22   23 1
    39   22   40 1
    40   22   41 1
    41   23   24 1
    42   23   42 1
    43   23   43 1
    44   24   25 1
    45   24   26 1
    46   24   27 1
    47   26   44 1
    48   26   45 1
    49   27   46 1
    50   27   47 1
    51   27   48 1
@<TRIPOS>MOLECULE
ZINC44368723
   38    39     0     0     0
SMALL
USER_CHARGES

@<TRIPOS>ATOM
      1 C1          0.0319    1.3407   -0.1708 C.3       1 <0>        -0.1871
      2 C2         -0.0910   -0.1354    0.2123 C.3       1 <0>         0.1824
      3 C3          0.6414   -0.9933   -0.8215 C.3       1 <0>        -0.1511
      4 C4          0.5185   -2.4694   -0.4384 C.3       1 <0>        -0.1148
      5 C5          1.1407   -2.6917    0.9416 C.3       1 <0>        -0.1227
      6 C6          0.4083   -1.8338    1.9754 C.3       1 <0>        -0.1216
      7 C7          0.5312   -0.3577    1.5923 C.3       1 <0>        -0.1136
      8 N1         -1.5056   -0.5146    0.2476 N.pl3     1 <0>        -1.0957
      9 S1         -2.4735   -0.2247   -1.0644 S.o2      1 <0>         2.6914
     10 O1         -1.7528   -0.6668   -2.2065 O.2       1 <0>        -0.9336
     11 O2         -3.7626   -0.7247   -0.7365 O.2       1 <0>        -0.9344
     12 C8         -2.6352    1.5233   -1.2164 C.ar      1 <0>        -0.6751
     13 C9         -2.1518    2.1671   -2.3402 C.ar      1 <0>         0.0533
     14 C10        -2.2780    3.5383   -2.4594 C.ar      1 <0>        -0.0648
     15 C11        -2.8878    4.2669   -1.4548 C.ar      1 <0>         0.0083
     16 C12        -3.3718    3.6244   -0.3312 C.ar      1 <0>        -0.1231
     17 C13        -3.2508    2.2509   -0.2139 C.ar      1 <0>         0.0924
     18 Cl1        -3.8650    1.4421    1.1941 Cl        1 <0>        -0.0074
     19 N2         -1.7599    4.2271   -3.6625 N.pl3     1 <0>         0.0306
     20 O3         -1.2263    3.5903   -4.5409 O.2       1 <0>        -0.1414
     21 O4         -1.8702    5.4265   -3.7670 O.3       1 <0>        -0.1439
     22 H1          1.0661    1.6628   -0.0492 H         1 <0>         0.0868
     23 H2         -0.2700    1.4728   -1.2098 H         1 <0>         0.0574
     24 H3         -0.6128    1.9382    0.4737 H         1 <0>         0.0661
     25 H4          0.1981   -0.8350   -1.8046 H         1 <0>         0.1005
     26 H5          1.6939   -0.7111   -0.8477 H         1 <0>         0.0772
     27 H6         -0.5340   -2.7516   -0.4121 H         1 <0>         0.0604
     28 H7          1.0402   -3.0806   -1.1748 H         1 <0>         0.0669
     29 H8          1.0531   -3.7433    1.2146 H         1 <0>         0.0633
     30 H9          2.1932   -2.4095    0.9154 H         1 <0>         0.0638
     31 H10        -0.6442   -2.1160    2.0017 H         1 <0>         0.0625
     32 H11         0.8516   -1.9922    2.9585 H         1 <0>         0.0673
     33 H12         1.5837   -0.0755    1.5660 H         1 <0>         0.0812
     34 H13         0.0095    0.2535    2.3288 H         1 <0>         0.0715
     35 H14        -1.8753   -0.9356    1.0395 H         1 <0>         0.4222
     36 H15        -1.6751    1.5986   -3.1250 H         1 <0>         0.1822
     37 H16        -2.9855    5.3384   -1.5482 H         1 <0>         0.1731
     38 H17        -3.8478    4.1936    0.4535 H         1 <0>         0.1695
@<TRIPOS>BOND
     1    1    2 1
     2    1   22 1
     3    1   23 1
     4    1   24 1
     5    2    7 1
     6    2    3 1
     7    2    8 1
     8    3    4 1
     9    3   25 1
    10    3   26 1
    11    4    5 1
    12    4   27 1
    13    4   28 1
    14    5    6 1
    15    5   29 1
    16    5   30 1
    17    6    7 1
    18    6   31 1
    19    6   32 1
    20    7   33 1
    21    7   34 1
    22    8    9 1
    23    8   35 1
    24    9   10 2
    25    9   11 2
    26    9   12 1
    27   12   17 ar
    28   12   13 ar
    29   13   14 ar
    30   13   36 1
    31   14   15 ar
    32   14   19 1
    33   15   16 ar
    34   15   37 1
    35   16   17 ar
    36   16   38 1
    37   17   18 1
    38   19   20 2
    39   19   21 1
@<TRIPOS>MOLECULE
ZINC05044841
   35    37     0     0     0
SMALL
USER_CHARGES

@<TRIPOS>ATOM
      1 C1         -0.2811    1.4375   -0.0917 C.3       1 <0>        -0.1132
      2 C2         -0.1046   -0.0590   -0.0723 C.ar      1 <0>        -0.0906
      3 C3          0.1152   -0.7400   -1.2614 C.ar      1 <0>        -0.0890
      4 C4          0.2785   -2.1095   -1.2630 C.ar      1 <0>        -0.1099
      5 C5          0.2230   -2.8104   -0.0665 C.ar      1 <0>         0.0570
      6 C6          0.0007   -2.1204    1.1388 C.ar      1 <0>         0.0549
      7 C7         -0.1570   -0.7305    1.1159 C.ar      1 <0>        -0.0611
      8 N1         -0.0051   -3.0411    2.1327 N.2       1 <0>        -0.4615
      9 C8          0.1959   -4.2359    1.6282 C.2       1 <0>         0.3203
     10 N2          0.3430   -4.1454    0.2690 N.pl3     1 <0>        -0.5915
     11 H1          0.5012   -4.8809   -0.3432 H         1 <0>         0.4252
     12 C9          0.2552   -5.4869    2.4069 C.2       1 <0>         0.0158
     13 C10         0.0944   -5.4557    3.7609 C.2       1 <0>         0.0242
     14 C11         0.0047   -6.7095    4.5183 C.ar      1 <0>        -0.0760
     15 C12        -0.5934   -7.8381    3.9440 C.ar      1 <0>        -0.0306
     16 C13        -0.6735   -9.0114    4.6621 C.ar      1 <0>        -0.0427
     17 C14        -0.1648   -9.0775    5.9485 C.ar      1 <0>        -0.0265
     18 C15         0.4279   -7.9681    6.5249 C.ar      1 <0>        -0.1049
     19 C16         0.5222   -6.7861    5.8183 C.ar      1 <0>         0.0321
     20 Cl1         1.2727   -5.3972    6.5403 Cl        1 <0>        -0.0145
     21 N3         -1.3057  -10.2050    4.0567 N.pl3     1 <0>         0.0299
     22 O1         -1.7508  -10.1495    2.9340 O.2       1 <0>        -0.1466
     23 O2         -1.3771  -11.2355    4.6850 O.3       1 <0>        -0.1425
     24 C17         0.4816   -6.7345    1.7413 C.1       1 <0>         0.2246
     25 N4          0.6612   -7.7241    1.2133 N.1       1 <0>        -0.3689
     26 H2          0.6905    1.9194    0.0168 H         1 <0>         0.0725
     27 H3         -0.7321    1.7380   -1.0374 H         1 <0>         0.0689
     28 H4         -0.9295    1.7376    0.7316 H         1 <0>         0.0689
     29 H5          0.1582   -0.1938   -2.1921 H         1 <0>         0.1343
     30 H6          0.4485   -2.6342   -2.1915 H         1 <0>         0.1273
     31 H7         -0.3242   -0.1899    2.0358 H         1 <0>         0.1338
     32 H8          0.0331   -4.5083    4.2757 H         1 <0>         0.1805
     33 H9         -0.9911   -7.7889    2.9411 H         1 <0>         0.1615
     34 H10        -0.2316  -10.0004    6.5053 H         1 <0>         0.1701
     35 H11         0.8217   -8.0284    7.5287 H         1 <0>         0.1681
@<TRIPOS>BOND
     1    1    2 1
     2    1   26 1
     3    1   27 1
     4    1   28 1
     5    2    7 ar
     6    2    3 ar
     7    3    4 ar
     8    3   29 1
     9    4    5 ar
    10    4   30 1
    11    5   10 1
    12    5    6 ar
    13    6    7 ar
    14    6    8 1
    15    7   31 1
    16    8    9 2
    17    9   10 1
    18    9   12 1
    19   10   11 1
    20   12   13 2
    21   12   24 1
    22   13   14 1
    23   13   32 1
    24   14   19 ar
    25   14   15 ar
    26   15   16 ar
    27   15   33 1
    28   16   17 ar
    29   16   21 1
    30   17   18 ar
    31   17   34 1
    32   18   19 ar
    33   18   35 1
    34   19   20 1
    35   21   22 2
    36   21   23 1
    37   24   25 3
@<TRIPOS>MOLECULE
ZINC65588944
   45    49     0     0     0
SMALL
USER_CHARGES

@<TRIPOS>ATOM
      1 C1         -2.5742    0.7472    0.1764 C.3       1 <0>        -0.1051
      2 C2         -1.7720   -0.5272    0.1170 C.2       1 <0>        -0.1053
      3 C3         -1.5401   -1.1506   -1.1216 C.2       1 <0>        -0.0925
      4 C4         -0.8163   -2.3002   -1.1739 C.2       1 <0>        -0.0767
      5 C5         -0.3068   -2.8525    0.0203 C.2       1 <0>         0.2395
      6 N1          0.4140   -3.9374    0.2556 N.2       1 <0>        -0.4693
      7 C6          0.6512   -4.0352    1.5752 C.2       1 <0>         0.1196
      8 C7          0.0507   -2.9606    2.1979 C.2       1 <0>         0.1580
      9 N2         -0.5501   -2.2201    1.2166 N.pl3     1 <0>        -0.3513
     10 C8         -1.2757   -1.0609    1.2515 C.2       1 <0>         0.0620
     11 N3          0.0549   -2.6826    3.5647 N.am      1 <0>        -0.6259
     12 C9          0.7119   -1.6021    4.0306 C.2       1 <0>         0.6052
     13 O1          1.2259   -0.8207    3.2530 O.2       1 <0>        -0.5133
     14 C10         0.8078   -1.3669    5.4842 C.2       1 <0>        -0.0008
     15 C11         1.4364   -0.3140    6.0859 C.2       1 <0>        -0.0078
     16 N4          1.2910   -0.4763    7.4305 N.pl3     1 <0>        -0.3630
     17 C12         1.7128    0.2665    8.4974 C.2       1 <0>         0.0527
     18 C13         1.4321   -0.1207    9.7583 C.2       1 <0>        -0.1311
     19 C14         0.6993   -1.2969    9.9934 C.2       1 <0>        -0.0959
     20 C15         0.2723   -2.0462    8.9431 C.2       1 <0>        -0.0771
     21 C16         0.5735   -1.6296    7.6282 C.2       1 <0>         0.2330
     22 N5          0.2860   -2.1496    6.4467 N.2       1 <0>        -0.4637
     23 C17         1.4223   -5.1096    2.2439 C.ar      1 <0>        -0.0143
     24 C18         2.2041   -4.8185    3.3613 C.ar      1 <0>        -0.0941
     25 C19         2.9199   -5.8231    3.9797 C.ar      1 <0>        -0.1194
     26 C20         2.8634   -7.1169    3.4931 C.ar      1 <0>        -0.1110
     27 C21         2.0895   -7.4118    2.3849 C.ar      1 <0>        -0.1216
     28 C22         1.3644   -6.4168    1.7617 C.ar      1 <0>        -0.0842
     29 H1         -1.9062    1.6022    0.0715 H         1 <0>         0.0774
     30 H2         -3.3042    0.7551   -0.6330 H         1 <0>         0.0770
     31 H3         -3.0923    0.8062    1.1335 H         1 <0>         0.0689
     32 H4         -1.9359   -0.7178   -2.0285 H         1 <0>         0.1460
     33 H5         -0.6333   -2.7864   -2.1208 H         1 <0>         0.1569
     34 H6         -1.4563   -0.5710    2.1969 H         1 <0>         0.1545
     35 H7         -0.4152   -3.2670    4.1799 H         1 <0>         0.4261
     36 H8          1.9520    0.4946    5.5891 H         1 <0>         0.1973
     37 H9          2.2766    1.1721    8.3291 H         1 <0>         0.1689
     38 H10         1.7725    0.4758   10.5918 H         1 <0>         0.1565
     39 H11         0.4767   -1.6041   11.0046 H         1 <0>         0.1480
     40 H12        -0.2918   -2.9515    9.1126 H         1 <0>         0.1561
     41 H13         2.2496   -3.8087    3.7417 H         1 <0>         0.1169
     42 H14         3.5258   -5.5989    4.8452 H         1 <0>         0.1234
     43 H15         3.4259   -7.8997    3.9800 H         1 <0>         0.1237
     44 H16         2.0492   -8.4236    2.0095 H         1 <0>         0.1264
     45 H17         0.7570   -6.6490    0.8994 H         1 <0>         0.1294
@<TRIPOS>BOND
     1    1    2 1
     2    1   29 1
     3    1   30 1
     4    1   31 1
     5    2   10 2
     6    2    3 1
     7    3    4 2
     8    3   32 1
     9    4    5 1
    10    4   33 1
    11    5    9 1
    12    5    6 2
    13    6    7 1
    14    7    8 2
    15    7   23 1
    16    8    9 1
    17    8   11 1
    18    9   10 1
    19   10   34 1
    20   11   12 am
    21   11   35 1
    22   12   13 2
    23   12   14 1
    24   14   22 1
    25   14   15 2
    26   15   16 1
    27   15   36 1
    28   16   21 1
    29   16   17 1
    30   17   18 2
    31   17   37 1
    32   18   19 1
    33   18   38 1
    34   19   20 2
    35   19   39 1
    36   20   21 1
    37   20   40 1
    38   21   22 2
    39   23   28 ar
    40   23   24 ar
    41   24   25 ar
    42   24   41 1
    43   25   26 ar
    44   25   42 1
    45   26   27 ar
    46   26   43 1
    47   27   28 ar
    48   27   44 1
    49   28   45 1
@<TRIPOS>MOLECULE
ZINC00944959
   33    35     0     0     0
SMALL
USER_CHARGES
p-tolyl 6-bromo-2-oxo-chromene-3-carboxylate
@<TRIPOS>ATOM
      1 C1          0.9210  -10.5512    0.3744 C.3       1 <0>        -0.1182
      2 C2          1.0047   -9.0505    0.2647 C.ar      1 <0>        -0.0770
      3 C3          0.6713   -8.4256   -0.9228 C.ar      1 <0>        -0.1065
      4 C4          0.7473   -7.0502   -1.0259 C.ar      1 <0>        -0.1098
      5 C5          1.1585   -6.2957    0.0634 C.ar      1 <0>         0.0727
      6 C6          1.4975   -6.9255    1.2522 C.ar      1 <0>        -0.1099
      7 C7          1.4144   -8.3009    1.3519 C.ar      1 <0>        -0.1079
      8 O1          1.2345   -4.9423   -0.0357 O.3       1 <0>        -0.2917
      9 C8          0.0743   -4.2583    0.0226 C.2       1 <0>         0.5124
     10 O2         -0.9826   -4.8570    0.0682 O.2       1 <0>        -0.4514
     11 C9          0.0873   -2.7874    0.0308 C.2       1 <0>        -0.2486
     12 C10         1.2844   -2.0925   -0.0208 C.2       1 <0>         0.0818
     13 C11         1.2499   -0.6753   -0.0111 C.ar      1 <0>        -0.1721
     14 C12         2.4442    0.0597   -0.0619 C.ar      1 <0>        -0.0078
     15 C13         2.4036    1.4247   -0.0518 C.ar      1 <0>        -0.1229
     16 C14         1.1870    2.0923    0.0085 C.ar      1 <0>        -0.0176
     17 C15         0.0021    1.3897    0.0591 C.ar      1 <0>        -0.1310
     18 C16         0.0171   -0.0009    0.0500 C.ar      1 <0>         0.1824
     19 O3         -1.1453   -0.6862    0.1001 O.3       1 <0>        -0.2541
     20 C17        -1.1679   -2.0293    0.0934 C.2       1 <0>         0.5246
     21 O4         -2.2313   -2.6188    0.1399 O.2       1 <0>        -0.4098
     22 Br1         4.0146    2.4126   -0.1197 Br        1 <0>        -0.0239
     23 H1          1.8760  -10.9904    0.0863 H         1 <0>         0.0751
     24 H2          0.6893  -10.8279    1.4029 H         1 <0>         0.0699
     25 H3          0.1370  -10.9206   -0.2867 H         1 <0>         0.0699
     26 H4          0.3516   -9.0134   -1.7705 H         1 <0>         0.1322
     27 H5          0.4864   -6.5625   -1.9536 H         1 <0>         0.1290
     28 H6          1.8219   -6.3408    2.1003 H         1 <0>         0.1324
     29 H7          1.6736   -8.7913    2.2786 H         1 <0>         0.1333
     30 H8          2.2256   -2.6200   -0.0679 H         1 <0>         0.1720
     31 H9          3.3935   -0.4530   -0.1093 H         1 <0>         0.1560
     32 H10         1.1693    3.1721    0.0155 H         1 <0>         0.1561
     33 H11        -0.9382    1.9193    0.1013 H         1 <0>         0.1603
@<TRIPOS>BOND
     1    1    2 1
     2    1   23 1
     3    1   24 1
     4    1   25 1
     5    2    7 ar
     6    2    3 ar
     7    3    4 ar
     8    3   26 1
     9    4    5 ar
    10    4   27 1
    11    5    6 ar
    12    5    8 1
    13    6    7 ar
    14    6   28 1
    15    7   29 1
    16    8    9 1
    17    9   10 2
    18    9   11 1
    19   11   20 1
    20   11   12 2
    21   12   13 1
    22   12   30 1
    23   13   18 ar
    24   13   14 ar
    25   14   15 ar
    26   14   31 1
    27   15   16 ar
    28   15   22 1
    29   16   17 ar
    30   16   32 1
    31   17   18 ar
    32   17   33 1
    33   18   19 1
    34   19   20 1
    35   20   21 2
@<TRIPOS>MOLECULE
ZINC01959421
   39    41     0     0     0
SMALL
USER_CHARGES
[3-(2-chlorophenyl)-4-oxo-chromen-7-yl] 2-methylpropanoate
@<TRIPOS>ATOM
      1 C1          8.5804    3.1224   -2.5156 C.3       1 <0>        -0.1421
      2 C2          7.8899    3.3409   -1.1678 C.3       1 <0>        -0.0815
      3 C3          7.5957    4.8307   -0.9811 C.3       1 <0>        -0.1495
      4 C4          6.5982    2.5656   -1.1336 C.2       1 <0>         0.4633
      5 O1          6.2640    1.9059   -2.0892 O.2       1 <0>        -0.4792
      6 O2          5.8184    2.6078   -0.0411 O.3       1 <0>        -0.2902
      7 C5          4.7314    1.7939   -0.0276 C.ar      1 <0>         0.1511
      8 C6          4.9034    0.4141    0.0584 C.ar      1 <0>        -0.1526
      9 C7          3.8190   -0.4162    0.0729 C.ar      1 <0>        -0.0111
     10 C8          2.5337    0.1222    0.0011 C.ar      1 <0>        -0.2165
     11 C9          2.3491    1.5128   -0.0859 C.ar      1 <0>         0.1627
     12 C10         3.4628    2.3429   -0.1000 C.ar      1 <0>        -0.1419
     13 O3          1.1071    2.0311   -0.1556 O.3       1 <0>        -0.2157
     14 C11        -0.0003    1.2850   -0.1472 C.2       1 <0>         0.1441
     15 C12         0.0323   -0.0705   -0.0670 C.2       1 <0>        -0.2494
     16 C13         1.3400   -0.7432    0.0138 C.2       1 <0>         0.4319
     17 O4          1.4310   -1.9565    0.0872 O.2       1 <0>        -0.4405
     18 C14        -1.2246   -0.8579   -0.0614 C.ar      1 <0>        -0.0192
     19 C15        -2.0524   -0.8623   -1.1826 C.ar      1 <0>        -0.0956
     20 C16        -3.2207   -1.5967   -1.1719 C.ar      1 <0>        -0.1146
     21 C17        -3.5713   -2.3284   -0.0512 C.ar      1 <0>        -0.1010
     22 C18        -2.7542   -2.3288    1.0645 C.ar      1 <0>        -0.1107
     23 C19        -1.5798   -1.6014    1.0638 C.ar      1 <0>        -0.0108
     24 Cl1        -0.5513   -1.6083    2.4623 Cl        1 <0>        -0.0597
     25 H1          7.9283    3.4673   -3.3180 H         1 <0>         0.0668
     26 H2          9.5147    3.6832   -2.5403 H         1 <0>         0.0758
     27 H3          8.7900    2.0611   -2.6486 H         1 <0>         0.0664
     28 H4          8.5420    2.9960   -0.3654 H         1 <0>         0.1154
     29 H5          6.9436    5.1756   -1.7835 H         1 <0>         0.0633
     30 H6          7.1038    4.9863   -0.0209 H         1 <0>         0.0716
     31 H7          8.5300    5.3915   -1.0058 H         1 <0>         0.0774
     32 H8          5.8989   -0.0010    0.1142 H         1 <0>         0.1414
     33 H9          3.9559   -1.4855    0.1392 H         1 <0>         0.1519
     34 H10         3.3393    3.4137   -0.1671 H         1 <0>         0.1551
     35 H11        -0.9590    1.7783   -0.2111 H         1 <0>         0.2060
     36 H12        -1.7798   -0.2922   -2.0585 H         1 <0>         0.1334
     37 H13        -3.8626   -1.6006   -2.0404 H         1 <0>         0.1331
     38 H14        -4.4865   -2.9018   -0.0479 H         1 <0>         0.1346
     39 H15        -3.0329   -2.9018    1.9365 H         1 <0>         0.1365
@<TRIPOS>BOND
     1    1    2 1
     2    1   25 1
     3    1   26 1
     4    1   27 1
     5    2    3 1
     6    2    4 1
     7    2   28 1
     8    3   29 1
     9    3   30 1
    10    3   31 1
    11    4    5 2
    12    4    6 1
    13    6    7 1
    14    7   12 ar
    15    7    8 ar
    16    8    9 ar
    17    8   32 1
    18    9   10 ar
    19    9   33 1
    20   10   16 1
    21   10   11 ar
    22   11   12 ar
    23   11   13 1
    24   12   34 1
    25   13   14 1
    26   14   15 2
    27   14   35 1
    28   15   16 1
    29   15   18 1
    30   16   17 2
    31   18   23 ar
    32   18   19 ar
    33   19   20 ar
    34   19   36 1
    35   20   21 ar
    36   20   37 1
    37   21   22 ar
    38   21   38 1
    39   22   23 ar
    40   22   39 1
    41   23   24 1
@<TRIPOS>MOLECULE
ZINC25459263
   36    38     0     0     0
SMALL
USER_CHARGES
2-[(1R)-1-(2-chlorophenyl)ethyl]sulfanyl-5-(2,4-dimethylthiazol-5-yl)-1,3,4-oxadiazole
@<TRIPOS>ATOM
      1 C1          8.6797    7.4905    0.5806 C.3       1 <0>        -0.1074
      2 C2          7.8958    8.5635    1.2914 C.2       1 <0>         0.1514
      3 C3          6.5426    8.4344    1.4957 C.2       1 <0>        -0.1726
      4 S1          6.1962    9.9597    2.3602 S.3       1 <0>         0.1082
      5 C4          7.8133   10.5924    2.3578 C.2       1 <0>         0.1200
      6 N1          8.4835    9.6515    1.7309 N.2       1 <0>        -0.5109
      7 C5          8.3201   11.8912    2.9300 C.3       1 <0>        -0.0767
      8 C6          5.6339    7.3421    1.1146 C.2       1 <0>         0.2684
      9 N2          5.9635    6.2430    0.4766 N.2       1 <0>        -0.2532
     10 N3          4.9175    5.5110    0.3180 N.2       1 <0>        -0.2728
     11 C7          3.8766    6.1164    0.8393 C.2       1 <0>         0.1319
     12 O1          4.3050    7.2842    1.3574 O.3       1 <0>        -0.1998
     13 S2          2.2225    5.5097    0.8641 S.3       1 <0>         0.1086
     14 C8          2.4519    3.9358    0.0003 C.3       1 <0>        -0.0656
     15 H1          3.1897    3.2164    0.3852 H         1 <0>         0.1308
     16 C9          2.8770    4.2044   -1.4447 C.3       1 <0>        -0.1520
     17 C10         1.1570    3.1651    0.0080 C.ar      1 <0>        -0.0652
     18 C11        -0.0472    3.8375    0.1020 C.ar      1 <0>        -0.1056
     19 C12        -1.2350    3.1307    0.1086 C.ar      1 <0>        -0.1036
     20 C13        -1.2194    1.7506    0.0270 C.ar      1 <0>        -0.1021
     21 C14        -0.0165    1.0776   -0.0727 C.ar      1 <0>        -0.1018
     22 C15         1.1730    1.7846   -0.0794 C.ar      1 <0>        -0.0247
     23 Cl1         2.6848    0.9395   -0.1968 Cl        1 <0>        -0.0551
     24 H2          8.0041    6.6702    0.2965 H         1 <0>         0.1036
     25 H3          9.4635    7.1052    1.2493 H         1 <0>         0.0845
     26 H4          9.1437    7.9130   -0.3229 H         1 <0>         0.0846
     27 H5          9.4023   11.9733    2.7507 H         1 <0>         0.1036
     28 H6          8.1248   11.9161    4.0122 H         1 <0>         0.0989
     29 H7          7.8031   12.7322    2.4447 H         1 <0>         0.0988
     30 H8          3.0164    3.2479   -1.9697 H         1 <0>         0.0767
     31 H9          3.8223    4.7669   -1.4503 H         1 <0>         0.0829
     32 H10         2.0979    4.7915   -1.9530 H         1 <0>         0.0682
     33 H11        -0.0598    4.9152    0.1705 H         1 <0>         0.1356
     34 H12        -2.1755    3.6565    0.1820 H         1 <0>         0.1354
     35 H13        -2.1476    1.1987    0.0367 H         1 <0>         0.1373
     36 H14        -0.0046   -0.0002   -0.1405 H         1 <0>         0.1395
@<TRIPOS>BOND
     1    1    2 1
     2    1   24 1
     3    1   25 1
     4    1   26 1
     5    2    6 1
     6    2    3 2
     7    3    4 1
     8    3    8 1
     9    4    5 1
    10    5    6 2
    11    5    7 1
    12    7   27 1
    13    7   28 1
    14    7   29 1
    15    8   12 1
    16    8    9 2
    17    9   10 1
    18   10   11 2
    19   11   12 1
    20   11   13 1
    21   13   14 1
    22   14   15 1
    23   14   16 1
    24   14   17 1
    25   16   30 1
    26   16   31 1
    27   16   32 1
    28   17   22 ar
    29   17   18 ar
    30   18   19 ar
    31   18   33 1
    32   19   20 ar
    33   19   34 1
    34   20   21 ar
    35   20   35 1
    36   21   22 ar
    37   21   36 1
    38   22   23 1
@<TRIPOS>MOLECULE
ZINC40113468
   53    56     0     0     0
SMALL
USER_CHARGES

@<TRIPOS>ATOM
      1 C1         -0.7796    0.1439   -0.7096 C.3       1 <0>        -0.1761
      2 C2         -0.6130   -1.3362   -0.3595 C.3       1 <0>         0.1186
      3 N1          0.2280   -1.4642    0.8331 N.pl3     1 <0>        -0.6233
      4 C3          1.6869   -1.5806    0.7076 C.3       1 <0>         0.1215
      5 C4          2.1509   -2.6995    1.6493 C.3       1 <0>        -0.1378
      6 C5          1.8356   -2.2943    3.0890 C.3       1 <0>        -0.0735
      7 C6          0.3947   -1.8722    3.2140 C.ar      1 <0>        -0.1561
      8 C7         -0.3438   -1.4716    2.1050 C.ar      1 <0>         0.2461
      9 C8         -1.6732   -1.0757    2.2483 C.ar      1 <0>        -0.1953
     10 C9         -2.2643   -1.0761    3.4901 C.ar      1 <0>        -0.0427
     11 C10        -1.5226   -1.4766    4.6093 C.ar      1 <0>        -0.1517
     12 C11        -0.1886   -1.8815    4.4532 C.ar      1 <0>        -0.0340
     13 C12        -2.1423   -1.4824    5.9395 C.2       1 <0>         0.0723
     14 C13        -3.3730   -0.9375    6.1174 C.2       1 <0>        -0.2523
     15 C14        -4.2606   -0.9652    7.3028 C.2       1 <0>         0.5516
     16 O1         -3.9405   -1.5355    8.3336 O.2       1 <0>        -0.4736
     17 N2         -5.4121   -0.3414    7.1841 N.2       1 <0>        -0.6687
     18 C15        -5.7710    0.2810    6.0725 C.2       1 <0>         0.4714
     19 S1         -4.3751    0.0222    4.9889 S.3       1 <0>        -0.0513
     20 N3         -6.9312    0.9631    5.8166 N.pl3     1 <0>        -0.5275
     21 C16        -7.1576    1.5901    4.5073 C.3       1 <0>         0.1110
     22 C17        -8.4959    1.0961    3.9489 C.3       1 <0>        -0.1323
     23 C18        -9.6012    1.3630    4.9731 C.3       1 <0>        -0.0955
     24 C19        -9.3017    0.5932    6.2615 C.3       1 <0>        -0.1325
     25 C20        -7.9752    1.0763    6.8441 C.3       1 <0>         0.1107
     26 C21       -10.9449    0.9023    4.4047 C.3       1 <0>        -0.1481
     27 H1          0.1985    0.5831   -0.9060 H         1 <0>         0.0577
     28 H2         -1.4054    0.2391   -1.5970 H         1 <0>         0.0664
     29 H3         -1.2506    0.6638    0.1246 H         1 <0>         0.0602
     30 H4         -1.5911   -1.7754   -0.1632 H         1 <0>         0.0765
     31 H5         -0.1421   -1.8561   -1.1938 H         1 <0>         0.0773
     32 H6          1.9502   -1.8303   -0.3202 H         1 <0>         0.0817
     33 H7          2.1581   -0.6397    0.9919 H         1 <0>         0.0634
     34 H8          1.6253   -3.6230    1.4063 H         1 <0>         0.0710
     35 H9          3.2250   -2.8482    1.5386 H         1 <0>         0.0810
     36 H10         2.0219   -3.1403    3.7505 H         1 <0>         0.0786
     37 H11         2.4805   -1.4649    3.3794 H         1 <0>         0.0746
     38 H12        -2.2399   -0.7678    1.3821 H         1 <0>         0.1291
     39 H13        -3.2937   -0.7691    3.6019 H         1 <0>         0.1314
     40 H14         0.3847   -2.1904    5.3148 H         1 <0>         0.1308
     41 H15        -1.6194   -1.9201    6.7769 H         1 <0>         0.1557
     42 H16        -7.1869    2.6737    4.6213 H         1 <0>         0.0896
     43 H17        -6.3530    1.3139    3.8258 H         1 <0>         0.0901
     44 H18        -8.7218    1.6259    3.0235 H         1 <0>         0.0872
     45 H19        -8.4345    0.0261    3.7503 H         1 <0>         0.0737
     46 H20        -9.6455    2.4303    5.1898 H         1 <0>         0.0768
     47 H21       -10.1012    0.7651    6.9822 H         1 <0>         0.0857
     48 H22        -9.2328   -0.4721    6.0412 H         1 <0>         0.0716
     49 H23        -7.7099    0.4612    7.7040 H         1 <0>         0.1053
     50 H24        -8.0727    2.1171    7.1529 H         1 <0>         0.0815
     51 H25       -10.9008   -0.1649    4.1874 H         1 <0>         0.0560
     52 H26       -11.7323    1.0923    5.1341 H         1 <0>         0.0586
     53 H27       -11.1589    1.4513    3.4877 H         1 <0>         0.0578
@<TRIPOS>BOND
     1    1    2 1
     2    1   27 1
     3    1   28 1
     4    1   29 1
     5    2    3 1
     6    2   30 1
     7    2   31 1
     8    3    8 1
     9    3    4 1
    10    4    5 1
    11    4   32 1
    12    4   33 1
    13    5    6 1
    14    5   34 1
    15    5   35 1
    16    6    7 1
    17    6   36 1
    18    6   37 1
    19    7   12 ar
    20    7    8 ar
    21    8    9 ar
    22    9   10 ar
    23    9   38 1
    24   10   11 ar
    25   10   39 1
    26   11   12 ar
    27   11   13 1
    28   12   40 1
    29   13   14 2
    30   13   41 1
    31   14   19 1
    32   14   15 1
    33   15   16 2
    34   15   17 1
    35   17   18 2
    36   18   19 1
    37   18   20 1
    38   20   25 1
    39   20   21 1
    40   21   22 1
    41   21   42 1
    42   21   43 1
    43   22   23 1
    44   22   44 1
    45   22   45 1
    46   23   24 1
    47   23   26 1
    48   23   46 1
    49   24   25 1
    50   24   47 1
    51   24   48 1
    52   25   49 1
    53   25   50 1
    54   26   51 1
    55   26   52 1
    56   26   53 1
@<TRIPOS>MOLECULE
ZINC05128507
   29    30     0     0     0
SMALL
USER_CHARGES

@<TRIPOS>ATOM
      1 C1         -0.3986    1.5655    0.0164 C.ar      1 <0>        -0.0975
      2 C2          0.6435    2.4642   -0.0848 C.ar      1 <0>        -0.0503
      3 C3          1.9336    2.0109   -0.2954 C.ar      1 <0>        -0.0423
      4 C4          2.1873    0.6553   -0.4058 C.ar      1 <0>        -0.0510
      5 C5          1.1537   -0.2532   -0.3068 C.ar      1 <0>        -0.0972
      6 C6         -0.1492    0.1975   -0.0940 C.ar      1 <0>         0.0045
      7 C7         -1.2632   -0.7725    0.0142 C.2       1 <0>        -0.0325
      8 C8         -1.6070   -1.5360   -1.0582 C.2       1 <0>         0.0078
      9 C9         -2.8107   -2.3756   -1.0061 C.ar      1 <0>        -0.0979
     10 C10        -3.9499   -1.9303   -0.3245 C.ar      1 <0>        -0.0541
     11 C11        -5.0758   -2.7229   -0.2794 C.ar      1 <0>        -0.1435
     12 C12        -5.0832   -3.9596   -0.9070 C.ar      1 <0>         0.1473
     13 C13        -3.9582   -4.4077   -1.5844 C.ar      1 <0>        -0.1359
     14 C14        -2.8265   -3.6223   -1.6424 C.ar      1 <0>        -0.0318
     15 Br1        -3.9799   -6.0958   -2.4364 Br        1 <0>        -0.0146
     16 F1         -6.1907   -4.7317   -0.8583 F         1 <0>        -0.1161
     17 C15        -1.9784   -0.9068    1.2475 C.1       1 <0>         0.2399
     18 N1         -2.5458   -1.0133    2.2259 N.1       1 <0>        -0.3923
     19 N2          3.0470    2.9804   -0.4035 N.pl3     1 <0>         0.0296
     20 O1          2.8281    4.1655   -0.3078 O.2       1 <0>        -0.1534
     21 O2          4.1753    2.5871   -0.5876 O.3       1 <0>        -0.1525
     22 H1         -1.4046    1.9203    0.1853 H         1 <0>         0.1511
     23 H2          0.4517    3.5236    0.0002 H         1 <0>         0.1594
     24 H3          3.1965    0.3076   -0.5701 H         1 <0>         0.1601
     25 H4          1.3528   -1.3111   -0.3938 H         1 <0>         0.1556
     26 H5         -0.9947   -1.5246   -1.9478 H         1 <0>         0.1617
     27 H6         -3.9458   -0.9677    0.1651 H         1 <0>         0.1402
     28 H7         -5.9549   -2.3805    0.2463 H         1 <0>         0.1520
     29 H8         -1.9528   -3.9701   -2.1737 H         1 <0>         0.1536
@<TRIPOS>BOND
     1    1    6 ar
     2    1    2 ar
     3    1   22 1
     4    2    3 ar
     5    2   23 1
     6    3    4 ar
     7    3   19 1
     8    4    5 ar
     9    4   24 1
    10    5    6 ar
    11    5   25 1
    12    6    7 1
    13    7    8 2
    14    7   17 1
    15    8    9 1
    16    8   26 1
    17    9   14 ar
    18    9   10 ar
    19   10   11 ar
    20   10   27 1
    21   11   12 ar
    22   11   28 1
    23   12   13 ar
    24   12   16 1
    25   13   14 ar
    26   13   15 1
    27   14   29 1
    28   17   18 3
    29   19   20 2
    30   19   21 1
@<TRIPOS>MOLECULE
ZINC04935711
   58    60     0     0     0
SMALL
USER_CHARGES
ethyl 4-[4-(4-methylcyclohexyl)piperazin-1-yl]sulfonylbenzoate
@<TRIPOS>ATOM
      1 C1         -1.7575   11.0482    1.4675 C.3       1 <0>        -0.1548
      2 C2         -0.3682   10.4899    1.7822 C.3       1 <0>         0.0628
      3 O1         -0.2185    9.1860    1.1613 O.3       1 <0>        -0.3511
      4 C3          0.9568    8.5533    1.3431 C.2       1 <0>         0.5002
      5 O2          1.8327    9.0766    2.0023 O.2       1 <0>        -0.4873
      6 C4          1.1805    7.2231    0.7408 C.ar      1 <0>        -0.0574
      7 C5          2.3976    6.5645    0.9272 C.ar      1 <0>        -0.0739
      8 C6          2.5996    5.3224    0.3623 C.ar      1 <0>        -0.0299
      9 C7          1.5996    4.7290   -0.3876 C.ar      1 <0>        -0.6580
     10 C8          0.3931    5.3783   -0.5807 C.ar      1 <0>        -0.0323
     11 C9          0.1758    6.6185   -0.0171 C.ar      1 <0>        -0.0804
     12 S1          1.8664    3.1423   -1.1060 S.o2      1 <0>         2.6899
     13 O3          3.2728    2.9882   -1.2393 O.2       1 <0>        -0.9331
     14 O4          0.9809    3.0436   -2.2130 O.2       1 <0>        -0.9332
     15 N1          1.3694    2.0143   -0.0002 N.pl3     1 <0>        -1.0122
     16 C10        -0.0187    1.5282    0.0104 C.3       1 <0>         0.0908
     17 C11         0.0021   -0.0041    0.0020 C.3       1 <0>        -0.0167
     18 C12         2.2335   -0.0577    0.9504 C.3       1 <0>        -0.0203
     19 C13         2.3042    1.4723    0.9976 C.3       1 <0>         0.0905
     20 C14         0.7459   -1.9455    1.2430 C.3       1 <0>         0.0294
     21 C15        -0.6806   -2.3335    1.6373 C.3       1 <0>        -0.1438
     22 C16        -0.7758   -3.8543    1.7754 C.3       1 <0>        -0.1120
     23 C17         0.1990   -4.3305    2.8542 C.3       1 <0>        -0.1018
     24 C18         1.6255   -3.9425    2.4599 C.3       1 <0>        -0.1122
     25 C19         1.7207   -2.4217    2.3219 C.3       1 <0>        -0.1457
     26 C20        -0.1575   -3.6739    4.1894 C.3       1 <0>        -0.1554
     27 H1         -1.8745   11.1442    0.3881 H         1 <0>         0.0693
     28 H2         -2.5179   10.3711    1.8566 H         1 <0>         0.0682
     29 H3         -1.8698   12.0271    1.9336 H         1 <0>         0.0864
     30 H4         -0.2511   10.3939    2.8616 H         1 <0>         0.0753
     31 H5          0.3922   11.1671    1.3931 H         1 <0>         0.0761
     32 H6          3.1788    7.0264    1.5126 H         1 <0>         0.1536
     33 H7          3.5404    4.8117    0.5060 H         1 <0>         0.1519
     34 H8         -0.3817    4.9112   -1.1706 H         1 <0>         0.1509
     35 H9         -0.7681    7.1222   -0.1649 H         1 <0>         0.1543
     36 H10        -0.5409    1.8921   -0.8744 H         1 <0>         0.1401
     37 H11        -0.5239    1.8826    0.9089 H         1 <0>         0.1008
     38 H12        -1.0133   -0.3823    0.1208 H         1 <0>         0.1450
     39 H13         0.4138   -0.3570   -0.9435 H         1 <0>         0.1385
     40 H14         2.8365   -0.4748    1.7569 H         1 <0>         0.1475
     41 H15         2.6141   -0.4099   -0.0084 H         1 <0>         0.1388
     42 H16         2.0223    1.8214    1.9910 H         1 <0>         0.1005
     43 H17         3.3185    1.7993    0.7689 H         1 <0>         0.1402
     44 H18         0.9999   -2.4133    0.2918 H         1 <0>         0.1398
     45 H19        -0.9346   -1.8658    2.5885 H         1 <0>         0.0894
     46 H20        -1.3750   -1.9943    0.8687 H         1 <0>         0.0869
     47 H21        -0.5218   -4.3221    0.8242 H         1 <0>         0.0750
     48 H22        -1.7920   -4.1307    2.0563 H         1 <0>         0.0850
     49 H23         0.1312   -5.4139    2.9526 H         1 <0>         0.0871
     50 H24         1.8795   -4.4103    1.5087 H         1 <0>         0.0749
     51 H25         2.3199   -4.2818    3.2285 H         1 <0>         0.0852
     52 H26         2.7369   -2.1453    2.0409 H         1 <0>         0.0891
     53 H27         1.4667   -1.9540    3.2731 H         1 <0>         0.0897
     54 H28        -0.0897   -2.5905    4.0911 H         1 <0>         0.0516
     55 H29        -1.1738   -3.9503    4.4703 H         1 <0>         0.0621
     56 H30         0.5369   -4.0132    4.9580 H         1 <0>         0.0622
     57 N2          0.8265   -0.4740    1.1366 N.4       1 <0>        -0.3924
     58 H31         0.4680   -0.0569    2.0036 H         1 <0>         0.4246
@<TRIPOS>BOND
     1    1    2 1
     2    1   27 1
     3    1   28 1
     4    1   29 1
     5    2    3 1
     6    2   30 1
     7    2   31 1
     8    3    4 1
     9    4    5 2
    10    4    6 1
    11    6   11 ar
    12    6    7 ar
    13    7    8 ar
    14    7   32 1
    15    8    9 ar
    16    8   33 1
    17    9   10 ar
    18    9   12 1
    19   10   11 ar
    20   10   34 1
    21   11   35 1
    22   12   13 2
    23   12   14 2
    24   12   15 1
    25   15   19 1
    26   15   16 1
    27   16   17 1
    28   16   36 1
    29   16   37 1
    30   17   38 1
    31   17   39 1
    32   17   57 1
    33   18   19 1
    34   18   40 1
    35   18   41 1
    36   18   57 1
    37   19   42 1
    38   19   43 1
    39   20   25 1
    40   20   21 1
    41   20   44 1
    42   20   57 1
    43   21   22 1
    44   21   45 1
    45   21   46 1
    46   22   23 1
    47   22   47 1
    48   22   48 1
    49   23   24 1
    50   23   26 1
    51   23   49 1
    52   24   25 1
    53   24   50 1
    54   24   51 1
    55   25   52 1
    56   25   53 1
    57   26   54 1
    58   26   55 1
    59   26   56 1
    60   57   58 1
@<TRIPOS>MOLECULE
ZINC12612521
   59    61     0     0     0
SMALL
USER_CHARGES
1-[(2-chlorophenyl)methyl]-N-[(1-isobutyl-4-piperidyl)methyl]-N-methyl-triazole-4-carboxamide
@<TRIPOS>ATOM
      1 C1          1.7272   14.0147    2.5553 C.3       1 <0>        -0.1517
      2 C2          2.3048   12.6387    2.8929 C.3       1 <0>        -0.1214
      3 C3          3.7981   12.6170    2.5608 C.3       1 <0>        -0.1717
      4 C4          2.1097   12.3555    4.3838 C.3       1 <0>        -0.0024
      5 C5          2.3773   10.6762    6.1068 C.3       1 <0>         0.0012
      6 C6          3.0441    9.3380    6.4332 C.3       1 <0>        -0.1414
      7 C7          2.4662    8.2500    5.5238 C.3       1 <0>        -0.1171
      8 C8          2.6855    8.6483    4.0617 C.3       1 <0>        -0.1372
      9 C9          2.0290   10.0065    3.8040 C.3       1 <0>        -0.0084
     10 C10         3.1721    6.9217    5.8034 C.3       1 <0>         0.1189
     11 N1          2.5388    5.8579    5.0202 N.am      1 <0>        -0.6044
     12 C11         1.4190    5.1003    5.5845 C.3       1 <0>         0.0688
     13 C12         2.9863    5.5761    3.7805 C.2       1 <0>         0.6095
     14 O1          3.9559    6.1605    3.3367 O.2       1 <0>        -0.5381
     15 C13         2.2999    4.5586    2.9620 C.2       1 <0>        -0.1152
     16 C14         2.5706    4.2700    1.6546 C.2       1 <0>         0.1047
     17 N2          1.7234    3.2874    1.2881 N.pl3     1 <0>        -0.3475
     18 N3          0.9319    2.9957    2.4081 N.2       1 <0>        -0.0476
     19 N4          1.3021    3.7592    3.3765 N.2       1 <0>        -0.2053
     20 C15         1.6414    2.6512   -0.0290 C.3       1 <0>         0.1613
     21 C16         1.7881    1.1592    0.1238 C.ar      1 <0>        -0.1170
     22 C17         0.6678    0.3494    0.1105 C.ar      1 <0>        -0.0717
     23 C18         0.8022   -1.0191    0.2502 C.ar      1 <0>        -0.1134
     24 C19         2.0571   -1.5790    0.4029 C.ar      1 <0>        -0.0869
     25 C20         3.1778   -0.7706    0.4160 C.ar      1 <0>        -0.1116
     26 C21         3.0438    0.5996    0.2766 C.ar      1 <0>        -0.0169
     27 Cl1         4.4512    1.6159    0.2935 Cl        1 <0>        -0.0644
     28 H1          2.2406   14.7777    3.1403 H         1 <0>         0.0677
     29 H2          1.8661   14.2164    1.4932 H         1 <0>         0.0768
     30 H3          0.6633   14.0301    2.7919 H         1 <0>         0.0669
     31 H4          1.7914   11.8756    2.3079 H         1 <0>         0.0946
     32 H5          4.2096   11.6367    2.8013 H         1 <0>         0.0514
     33 H6          3.9371   12.8187    1.4987 H         1 <0>         0.0835
     34 H7          4.3116   13.3801    3.1458 H         1 <0>         0.0732
     35 H8          1.0488   12.4097    4.6281 H         1 <0>         0.1304
     36 H9          2.6556   13.0958    4.9687 H         1 <0>         0.1286
     37 H10         1.3046   10.6005    6.2850 H         1 <0>         0.1295
     38 H11         2.7969   11.4557    6.7427 H         1 <0>         0.1292
     39 H12         2.8532    9.0808    7.4750 H         1 <0>         0.1148
     40 H13         4.1187    9.4171    6.2683 H         1 <0>         0.0912
     41 H14         1.3988    8.1430    5.7170 H         1 <0>         0.0914
     42 H15         3.7544    8.7165    3.8595 H         1 <0>         0.0951
     43 H16         2.2383    7.8983    3.4092 H         1 <0>         0.1058
     44 H17         0.9580    9.9339    3.9931 H         1 <0>         0.1278
     45 H18         2.1957   10.2996    2.7675 H         1 <0>         0.1301
     46 H19         3.0958    6.6861    6.8648 H         1 <0>         0.0908
     47 H20         4.2225    7.0026    5.5237 H         1 <0>         0.0932
     48 H21         1.7915    4.1757    6.0255 H         1 <0>         0.0634
     49 H22         0.9272    5.6969    6.3528 H         1 <0>         0.0680
     50 H23         0.7053    4.8646    4.7951 H         1 <0>         0.1025
     51 H24         3.3193    4.7393    1.0336 H         1 <0>         0.2011
     52 H25         2.4396    3.0314   -0.6665 H         1 <0>         0.1192
     53 H26         0.6760    2.8769   -0.4819 H         1 <0>         0.1165
     54 H27        -0.3123    0.7858   -0.0136 H         1 <0>         0.1380
     55 H28        -0.0733   -1.6514    0.2397 H         1 <0>         0.1375
     56 H29         2.1616   -2.6484    0.5116 H         1 <0>         0.1392
     57 H30         4.1580   -1.2081    0.5352 H         1 <0>         0.1391
     58 N5          2.6461   11.0140    4.6929 N.4       1 <0>        -0.3946
     59 H31         3.6612   11.0171    4.5385 H         1 <0>         0.4253
@<TRIPOS>BOND
     1    1    2 1
     2    1   28 1
     3    1   29 1
     4    1   30 1
     5    2    3 1
     6    2    4 1
     7    2   31 1
     8    3   32 1
     9    3   33 1
    10    3   34 1
    11    4   35 1
    12    4   36 1
    13    4   58 1
    14    5    6 1
    15    5   37 1
    16    5   38 1
    17    5   58 1
    18    6    7 1
    19    6   39 1
    20    6   40 1
    21    7    8 1
    22    7   10 1
    23    7   41 1
    24    8    9 1
    25    8   42 1
    26    8   43 1
    27    9   44 1
    28    9   45 1
    29    9   58 1
    30   10   11 1
    31   10   46 1
    32   10   47 1
    33   11   12 1
    34   11   13 am
    35   12   48 1
    36   12   49 1
    37   12   50 1
    38   13   14 2
    39   13   15 1
    40   15   19 1
    41   15   16 2
    42   16   17 1
    43   16   51 1
    44   17   18 1
    45   17   20 1
    46   18   19 2
    47   20   21 1
    48   20   52 1
    49   20   53 1
    50   21   26 ar
    51   21   22 ar
    52   22   23 ar
    53   22   54 1
    54   23   24 ar
    55   23   55 1
    56   24   25 ar
    57   24   56 1
    58   25   26 ar
    59   25   57 1
    60   26   27 1
    61   58   59 1
@<TRIPOS>MOLECULE
ZINC29725679
   64    68     0     0     0
SMALL
USER_CHARGES
2-[cyclopropyl-[(1R)-1-cyclopropylethyl]amino]-1-[5-(1-piperidylsulfonyl)indolin-1-yl]ethanone
@<TRIPOS>ATOM
      1 C1          0.4745    1.5660   -2.2617 C.3       1 <0>        -0.1786
      2 C2          1.6802    1.3478   -1.3455 C.3       1 <0>         0.0299
      3 H1          2.5676    1.8593   -1.7467 H         1 <0>         0.1336
      4 C3          1.9450   -0.1520   -1.1994 C.3       1 <0>        -0.2862
      5 C4          3.3690   -0.6468   -1.4607 C.3       1 <0>        -0.1032
      6 C5          2.2583   -0.9413   -2.4721 C.3       1 <0>        -0.0911
      7 N1          1.4025    1.9270   -0.0244 N.4       1 <0>        -0.3820
      8 C6          1.2601    3.3866   -0.1088 C.3       1 <0>        -0.0484
      9 C7          2.6213    4.0165   -0.2552 C.2       1 <0>         0.5127
     10 O1          3.6054    3.3158   -0.3628 O.2       1 <0>        -0.5043
     11 N2          2.7452    5.3585   -0.2665 N.am      1 <0>        -0.5362
     12 C8          1.6331    6.3058   -0.1509 C.3       1 <0>         0.0855
     13 C9          2.2816    7.6984   -0.2125 C.3       1 <0>        -0.0887
     14 C10         3.7598    7.4233   -0.3730 C.ar      1 <0>        -0.1381
     15 C11         3.9531    6.0510   -0.3961 C.ar      1 <0>         0.1747
     16 C12         5.2487    5.5514   -0.5379 C.ar      1 <0>        -0.1397
     17 C13         6.3180    6.4143   -0.6530 C.ar      1 <0>         0.0065
     18 C14         6.1146    7.7816   -0.6288 C.ar      1 <0>        -0.6809
     19 C15         4.8340    8.2840   -0.4886 C.ar      1 <0>         0.0230
     20 S1          7.4837    8.8810   -0.7755 S.o2      1 <0>         2.6895
     21 O2          7.0863   10.1067   -0.1765 O.2       1 <0>        -0.9478
     22 O3          8.6310    8.1604   -0.3471 O.2       1 <0>        -0.9476
     23 N3          7.6935    9.1890   -2.3891 N.pl3     1 <0>        -0.9941
     24 C16         8.5772    8.3439   -3.2037 C.3       1 <0>         0.1147
     25 C17         7.7863    7.8407   -4.4208 C.3       1 <0>        -0.1348
     26 C18         7.1969    9.0383   -5.1695 C.3       1 <0>        -0.1209
     27 C19         6.2354    9.7942   -4.2497 C.3       1 <0>        -0.1349
     28 C20         7.0043   10.3161   -3.0319 C.3       1 <0>         0.1153
     29 C21         0.2104    1.3158    0.5784 C.3       1 <0>        -0.1664
     30 C22        -1.0229    2.2027    0.7603 C.3       1 <0>        -0.1059
     31 C23        -0.1936    1.7854    1.9773 C.3       1 <0>        -0.0989
     32 H2          0.2842    2.6443   -2.3667 H         1 <0>         0.0707
     33 H3         -0.4100    1.0782   -1.8261 H         1 <0>         0.0854
     34 H4          0.6825    1.1323   -3.2510 H         1 <0>         0.1051
     35 H5          1.2233   -0.2577   -0.3760 H         1 <0>         0.1279
     36 H6          4.0535    0.2131   -1.5056 H         1 <0>         0.1108
     37 H7          3.6784   -1.3196   -0.6474 H         1 <0>         0.1150
     38 H8          1.6499   -1.8575   -2.4944 H         1 <0>         0.1176
     39 H9          2.0250   -0.3248   -3.3527 H         1 <0>         0.1095
     40 H10         0.6409    3.6448   -0.9806 H         1 <0>         0.1628
     41 H11         0.7791    3.7616    0.8066 H         1 <0>         0.1631
     42 H12         0.9306    6.1498   -0.9829 H         1 <0>         0.0947
     43 H13         1.1118    6.1445    0.8042 H         1 <0>         0.0961
     44 H14         1.8734    8.2554   -1.0687 H         1 <0>         0.1064
     45 H15         2.0654    8.2450    0.7172 H         1 <0>         0.1073
     46 H16         5.4144    4.4843   -0.5572 H         1 <0>         0.1480
     47 H17         7.3178    6.0208   -0.7620 H         1 <0>         0.1506
     48 H18         4.6733    9.3518   -0.4695 H         1 <0>         0.1497
     49 H19         9.4436    8.9339   -3.5373 H         1 <0>         0.0817
     50 H20         8.9243    7.4903   -2.6030 H         1 <0>         0.0919
     51 H21         8.4581    7.2822   -5.0892 H         1 <0>         0.0786
     52 H22         6.9737    7.1808   -4.0828 H         1 <0>         0.0632
     53 H23         8.0091    9.7110   -5.4823 H         1 <0>         0.0695
     54 H24         6.6520    8.6839   -6.0569 H         1 <0>         0.0660
     55 H25         5.7939   10.6403   -4.7966 H         1 <0>         0.0790
     56 H26         5.4362    9.1154   -3.9172 H         1 <0>         0.0632
     57 H27         6.3046   10.7738   -2.3171 H         1 <0>         0.0918
     58 H28         7.7444   11.0647   -3.3509 H         1 <0>         0.0814
     59 H29         0.4288    0.3504    0.0986 H         1 <0>         0.1893
     60 H30        -0.8897    3.1365    0.1943 H         1 <0>         0.1202
     61 H31        -1.9131    1.6733    0.3899 H         1 <0>         0.1386
     62 H32        -0.3986    0.9111    2.6126 H         1 <0>         0.1424
     63 H33         0.6248    2.3743    2.4170 H         1 <0>         0.1191
     64 H34         2.2610    1.7083    0.6277 H         1 <0>         0.4466
@<TRIPOS>BOND
     1    1    2 1
     2    1   32 1
     3    1   33 1
     4    1   34 1
     5    2    3 1
     6    2    4 1
     7    2    7 1
     8    4    6 1
     9    4    5 1
    10    4   35 1
    11    5    6 1
    12    5   36 1
    13    5   37 1
    14    6   38 1
    15    6   39 1
    16    7    8 1
    17    7   29 1
    18    7   64 1
    19    8    9 1
    20    8   40 1
    21    8   41 1
    22    9   10 2
    23    9   11 am
    24   11   15 1
    25   11   12 1
    26   12   13 1
    27   12   42 1
    28   12   43 1
    29   13   14 1
    30   13   44 1
    31   13   45 1
    32   14   19 ar
    33   14   15 ar
    34   15   16 ar
    35   16   17 ar
    36   16   46 1
    37   17   18 ar
    38   17   47 1
    39   18   19 ar
    40   18   20 1
    41   19   48 1
    42   20   21 2
    43   20   22 2
    44   20   23 1
    45   23   28 1
    46   23   24 1
    47   24   25 1
    48   24   49 1
    49   24   50 1
    50   25   26 1
    51   25   51 1
    52   25   52 1
    53   26   27 1
    54   26   53 1
    55   26   54 1
    56   27   28 1
    57   27   55 1
    58   27   56 1
    59   28   57 1
    60   28   58 1
    61   29   31 1
    62   29   30 1
    63   29   59 1
    64   30   31 1
    65   30   60 1
    66   30   61 1
    67   31   62 1
    68   31   63 1
@<TRIPOS>MOLECULE
ZINC39012550
   53    55     0     0     0
SMALL
USER_CHARGES

@<TRIPOS>ATOM
      1 C1          0.7608    0.9756   -0.5493 C.3       1 <0>        -0.1510
      2 C2          0.2524   -0.4054   -0.1303 C.3       1 <0>        -0.1226
      3 C3          1.0118   -0.8727    1.1130 C.3       1 <0>        -0.1507
      4 C4         -1.2424   -0.3243    0.1856 C.3       1 <0>         0.1133
      5 N1         -1.7587   -1.6690    0.4530 N.pl3     1 <0>        -0.9913
      6 C5         -1.7048   -2.2178    1.8103 C.3       1 <0>         0.1268
      7 C6         -2.6276   -1.4091    2.7243 C.3       1 <0>        -0.1619
      8 H1         -2.3828   -0.3551    2.5932 H         1 <0>         0.1834
      9 C7         -2.3090   -1.7858    4.1580 C.2       1 <0>         0.1418
     10 C8         -3.3278   -2.2845    4.9143 C.ar      1 <0>        -0.1857
     11 C9         -3.1075   -2.6738    6.3076 C.ar      1 <0>         0.0163
     12 C10        -4.1517   -3.1663    7.0227 C.ar      1 <0>        -0.1677
     13 C11        -5.4188   -3.3063    6.4559 C.ar      1 <0>         0.0919
     14 C12        -5.6880   -2.9639    5.1690 C.ar      1 <0>        -0.2285
     15 C13        -4.6760   -2.4428    4.3419 C.ar      1 <0>         0.3611
     16 N2         -4.9518   -2.1094    3.0812 N.am      1 <0>        -0.5901
     17 C14        -4.0485   -1.6177    2.2509 C.2       1 <0>         0.5184
     18 O1         -4.3600   -1.3326    1.1101 O.2       1 <0>        -0.4178
     19 S1         -2.4030   -2.5687   -0.7789 S.o2      1 <0>         2.6983
     20 O2         -3.3382   -3.4590   -0.1855 O.2       1 <0>        -0.9578
     21 O3         -2.7669   -1.6533   -1.8031 O.2       1 <0>        -0.9369
     22 C15        -1.1040   -3.5643   -1.4316 C.ar      1 <0>        -0.7248
     23 C16        -0.3168   -3.0834   -2.4615 C.ar      1 <0>         0.0203
     24 C17         0.7020   -3.8622   -2.9752 C.ar      1 <0>        -0.1670
     25 C18         0.9352   -5.1277   -2.4566 C.ar      1 <0>         0.1922
     26 C19         0.1442   -5.6077   -1.4229 C.ar      1 <0>        -0.2282
     27 C20        -0.8700   -4.8229   -0.9091 C.ar      1 <0>         0.0178
     28 O4          1.9365   -5.8959   -2.9605 O.3       1 <0>        -0.3060
     29 C21         2.1189   -7.1879   -2.3779 C.3       1 <0>         0.0206
     30 H2          1.8257    0.9178   -0.7744 H         1 <0>         0.0643
     31 H3          0.2197    1.3085   -1.4350 H         1 <0>         0.0630
     32 H4          0.5990    1.6841    0.2630 H         1 <0>         0.0592
     33 H5          0.4142   -1.1139   -0.9426 H         1 <0>         0.0766
     34 H6          2.0838   -0.7727    0.9429 H         1 <0>         0.0634
     35 H7          0.7209   -0.2617    1.9675 H         1 <0>         0.0557
     36 H8          0.7717   -1.9167    1.3143 H         1 <0>         0.0551
     37 H9         -1.3948    0.3045    1.0628 H         1 <0>         0.0853
     38 H10        -1.7709    0.1052   -0.6655 H         1 <0>         0.1065
     39 H11        -2.0296   -3.2581    1.7947 H         1 <0>         0.1071
     40 H12        -0.6826   -2.1618    2.1846 H         1 <0>         0.1211
     41 H13        -1.3154   -1.6644    4.5634 H         1 <0>         0.2030
     42 H14        -2.1318   -2.5715    6.7591 H         1 <0>         0.1751
     43 H15        -3.9980   -3.4560    8.0517 H         1 <0>         0.1650
     44 H16        -6.2178   -3.7032    7.0645 H         1 <0>         0.1670
     45 H17        -6.6864   -3.0924    4.7779 H         1 <0>         0.1703
     46 H18        -0.4987   -2.0983   -2.8649 H         1 <0>         0.1476
     47 H19         1.3162   -3.4865   -3.7802 H         1 <0>         0.1462
     48 H20         0.3237   -6.5924   -1.0174 H         1 <0>         0.1411
     49 H21        -1.4833   -5.1943   -0.1014 H         1 <0>         0.1377
     50 H22         2.3389   -7.0798   -1.3159 H         1 <0>         0.0615
     51 H23         1.2087   -7.7745   -2.5025 H         1 <0>         0.0627
     52 H24         2.9483   -7.6950   -2.8710 H         1 <0>         0.1105
     53 H25        -5.8576   -2.2347    2.7576 H         1 <0>         0.4410
@<TRIPOS>BOND
     1    1    2 1
     2    1   30 1
     3    1   31 1
     4    1   32 1
     5    2    3 1
     6    2    4 1
     7    2   33 1
     8    3   34 1
     9    3   35 1
    10    3   36 1
    11    4    5 1
    12    4   37 1
    13    4   38 1
    14    5    6 1
    15    5   19 1
    16    6    7 1
    17    6   39 1
    18    6   40 1
    19    7    8 1
    20    7   17 1
    21    7    9 1
    22    9   10 2
    23    9   41 1
    24   10   15 ar
    25   10   11 ar
    26   11   12 ar
    27   11   42 1
    28   12   13 ar
    29   12   43 1
    30   13   14 ar
    31   13   44 1
    32   14   15 ar
    33   14   45 1
    34   15   16 2
    35   16   17 am
    36   16   53 1
    37   17   18 2
    38   19   20 2
    39   19   21 2
    40   19   22 1
    41   22   27 ar
    42   22   23 ar
    43   23   24 ar
    44   23   46 1
    45   24   25 ar
    46   24   47 1
    47   25   26 ar
    48   25   28 1
    49   26   27 ar
    50   26   48 1
    51   27   49 1
    52   28   29 1
    53   29   50 1
    54   29   51 1
    55   29   52 1
@<TRIPOS>MOLECULE
ZINC43620194
   61    66     0     0     0
SMALL
USER_CHARGES

@<TRIPOS>ATOM
      1 C1         -0.0173    1.4248    0.0099 C.3       1 <0>         0.0231
      2 O1          0.0021   -0.0041    0.0020 O.3       1 <0>        -0.3185
      3 C2          0.6058   -0.6071   -1.0557 C.ar      1 <0>         0.1430
      4 C3          1.1731    0.1608   -2.0626 C.ar      1 <0>        -0.2081
      5 C4          1.7865   -0.4545   -3.1363 C.ar      1 <0>        -0.0653
      6 C5          1.8356   -1.8347   -3.2084 C.ar      1 <0>        -0.1558
      7 C6          1.2707   -2.6020   -2.2067 C.ar      1 <0>        -0.0614
      8 C7          0.6609   -1.9913   -1.1277 C.ar      1 <0>        -0.1567
      9 C8          0.0508   -2.8283   -0.0330 C.3       1 <0>         0.1746
     10 N1         -1.3981   -2.9124   -0.2326 N.am      1 <0>        -0.5823
     11 C9         -2.3658   -1.9623    0.3261 C.3       1 <0>         0.0958
     12 C10        -3.6840   -2.1926   -0.4360 C.3       1 <0>        -0.1043
     13 H1         -4.5700   -2.0917    0.1908 H         1 <0>         0.1469
     14 C11        -3.7171   -1.2943   -1.6971 C.3       1 <0>        -0.1279
     15 C12        -4.4576   -2.2048   -2.7098 C.3       1 <0>         0.0814
     16 H2         -5.5349   -2.1463   -2.5547 H         1 <0>         0.1555
     17 N2         -3.9703   -3.5713   -2.4222 N.4       1 <0>        -0.3834
     18 C13        -3.4875   -3.6154   -1.0129 C.3       1 <0>         0.0235
     19 C14        -2.0090   -3.8670   -0.9560 C.2       1 <0>         0.5122
     20 O2         -1.4453   -4.8010   -1.4858 O.2       1 <0>        -0.4932
     21 C15        -4.3021   -4.6487   -0.2315 C.3       1 <0>        -0.1118
     22 C16        -4.8784   -5.5577   -1.3516 C.3       1 <0>        -0.1327
     23 C17        -5.1006   -4.5218   -2.5243 C.3       1 <0>        -0.0135
     24 C18        -4.1103   -1.8087   -4.1217 C.ar      1 <0>        -0.1057
     25 C19        -2.9078   -2.2088   -4.6755 C.ar      1 <0>        -0.1400
     26 C20        -2.5856   -1.8474   -5.9705 C.ar      1 <0>        -0.0652
     27 C21        -3.4648   -1.0855   -6.7154 C.ar      1 <0>        -0.1234
     28 C22        -4.6727   -0.6828   -6.1625 C.ar      1 <0>         0.1906
     29 C23        -4.9955   -1.0514   -4.8632 C.ar      1 <0>        -0.0956
     30 N3         -5.5669    0.0904   -6.9159 N.pl3     1 <0>        -0.3386
     31 C24        -5.4257    0.4282   -8.2177 C.2       1 <0>         0.0521
     32 C25        -6.4977    1.1761   -8.5676 C.2       1 <0>        -0.2461
     33 C26        -7.3218    1.3002   -7.4437 C.2       1 <0>         0.0727
     34 N4         -6.7680    0.6451   -6.4553 N.2       1 <0>        -0.2943
     35 H3          1.0053    1.8021    0.0021 H         1 <0>         0.0614
     36 H4         -0.5445    1.7859   -0.8732 H         1 <0>         0.0567
     37 H5         -0.5275    1.7763    0.9067 H         1 <0>         0.1058
     38 H6          1.1347    1.2387   -2.0069 H         1 <0>         0.1319
     39 H7          2.2279    0.1427   -3.9204 H         1 <0>         0.1293
     40 H8          2.3157   -2.3139   -4.0487 H         1 <0>         0.1288
     41 H9          1.3100   -3.6796   -2.2654 H         1 <0>         0.1323
     42 H10         0.4800   -3.8299   -0.0595 H         1 <0>         0.1013
     43 H11         0.2584   -2.3694    0.9337 H         1 <0>         0.1045
     44 H12        -2.5091   -2.1552    1.3893 H         1 <0>         0.0976
     45 H13        -2.0185   -0.9405    0.1737 H         1 <0>         0.1127
     46 H14        -4.2797   -0.3796   -1.5103 H         1 <0>         0.1291
     47 H15        -2.7082   -1.0671   -2.0413 H         1 <0>         0.1039
     48 H16        -3.6591   -5.2212    0.4370 H         1 <0>         0.1159
     49 H17        -5.1056   -4.1658    0.3247 H         1 <0>         0.1147
     50 H18        -4.1550   -6.3170   -1.6485 H         1 <0>         0.1022
     51 H19        -5.8163   -6.0161   -1.0381 H         1 <0>         0.1235
     52 H20        -6.0468   -4.0045   -2.3654 H         1 <0>         0.1353
     53 H21        -5.0953   -5.0146   -3.4965 H         1 <0>         0.1379
     54 H22        -2.2189   -2.8045   -4.0950 H         1 <0>         0.1211
     55 H23        -1.6456   -2.1607   -6.4000 H         1 <0>         0.1467
     56 H24        -3.2124   -0.8032   -7.7269 H         1 <0>         0.1433
     57 H25        -5.9364   -0.7430   -4.4318 H         1 <0>         0.1490
     58 H26        -4.6045    0.1512   -8.8622 H         1 <0>         0.1819
     59 H27        -6.6843    1.6021   -9.5424 H         1 <0>         0.1621
     60 H28        -8.2564    1.8397   -7.4005 H         1 <0>         0.1971
     61 H29        -3.2377   -3.8261   -3.0676 H         1 <0>         0.4265
@<TRIPOS>BOND
     1    1    2 1
     2    1   35 1
     3    1   36 1
     4    1   37 1
     5    2    3 1
     6    3    8 ar
     7    3    4 ar
     8    4    5 ar
     9    4   38 1
    10    5    6 ar
    11    5   39 1
    12    6    7 ar
    13    6   40 1
    14    7    8 ar
    15    7   41 1
    16    8    9 1
    17    9   10 1
    18    9   42 1
    19    9   43 1
    20   10   19 am
    21   10   11 1
    22   11   12 1
    23   11   44 1
    24   11   45 1
    25   12   13 1
    26   12   18 1
    27   12   14 1
    28   14   15 1
    29   14   46 1
    30   14   47 1
    31   15   16 1
    32   15   17 1
    33   15   24 1
    34   17   23 1
    35   17   18 1
    36   17   61 1
    37   18   19 1
    38   18   21 1
    39   19   20 2
    40   21   22 1
    41   21   48 1
    42   21   49 1
    43   22   23 1
    44   22   50 1
    45   22   51 1
    46   23   52 1
    47   23   53 1
    48   24   29 ar
    49   24   25 ar
    50   25   26 ar
    51   25   54 1
    52   26   27 ar
    53   26   55 1
    54   27   28 ar
    55   27   56 1
    56   28   29 ar
    57   28   30 1
    58   29   57 1
    59   30   34 1
    60   30   31 1
    61   31   32 2
    62   31   58 1
    63   32   33 1
    64   32   59 1
    65   33   34 2
    66   33   60 1
@<TRIPOS>MOLECULE
ZINC04664101
   58    61     0     0     0
SMALL
USER_CHARGES
ethyl 2,7,7-trimethyl-4-(6-methyl-4-oxo-chromen-3-yl)-5-oxo-3,4,6,8-tetrahydroquinoline-3-carboxylate
@<TRIPOS>ATOM
      1 C1         -0.0538    9.2113    5.6461 C.3       1 <0>        -0.1522
      2 C2          0.1582    7.7284    5.3348 C.3       1 <0>         0.0608
      3 O1         -0.1184    6.9402    6.5225 O.3       1 <0>        -0.3443
      4 C3          0.0219    5.6095    6.4169 C.2       1 <0>         0.5369
      5 O2          0.3643    5.1195    5.3668 O.2       1 <0>        -0.4867
      6 C4         -0.2477    4.7265    7.6080 C.2       1 <0>        -0.1783
      7 H1         -0.3042    3.2542   10.4045 H         1 <0>         0.1507
      8 C5          0.4393    3.7110    8.5250 C.3       1 <0>         0.0928
      9 H2          1.5183    3.7543    8.3770 H         1 <0>         0.1327
     10 C6          0.1113    4.0488    9.9617 C.3       1 <0>        -0.1669
     11 C7         -1.1003    4.5720   10.2651 C.2       1 <0>         0.1870
     12 C8         -1.4657    4.8834   11.6959 C.3       1 <0>        -0.0798
     13 C9         -0.2087    5.2818   12.4711 C.3       1 <0>        -0.0614
     14 C10         0.7994    4.1306   12.3993 C.3       1 <0>        -0.1512
     15 C11         1.0783    3.8118   10.9546 C.2       1 <0>         0.3708
     16 O3          2.1544    3.3432   10.6421 O.2       1 <0>        -0.4339
     17 C12         0.4015    6.5382   11.8464 C.3       1 <0>        -0.1523
     18 C13        -0.5718    5.5557   13.9319 C.3       1 <0>        -0.1413
     19 N1         -2.0018    4.8241    9.2958 N.2       1 <0>        -0.5028
     20 C14        -1.6786    4.8976    8.0493 C.2       1 <0>         0.0804
     21 C15        -2.3946    6.1908    7.7559 C.3       1 <0>        -0.0868
     22 C16        -0.0587    2.3249    8.2059 C.2       1 <0>        -0.3042
     23 C17        -1.3681    2.0351    8.3126 C.2       1 <0>         0.1387
     24 O4         -1.8672    0.8241    8.0431 O.3       1 <0>        -0.2114
     25 C18        -1.0925   -0.2040    7.6410 C.ar      1 <0>         0.1260
     26 C19        -1.6426   -1.4507    7.3682 C.ar      1 <0>        -0.1307
     27 C20        -0.8302   -2.4847    6.9547 C.ar      1 <0>        -0.0578
     28 C21         0.5378   -2.2991    6.8158 C.ar      1 <0>        -0.1091
     29 C22         1.1030   -1.0710    7.0806 C.ar      1 <0>        -0.0316
     30 C23         0.2914   -0.0161    7.4947 C.ar      1 <0>        -0.2108
     31 C24         0.8511    1.3169    7.7904 C.2       1 <0>         0.4302
     32 O5          2.0443    1.5432    7.6829 O.2       1 <0>        -0.4449
     33 C25         1.4085   -3.4445    6.3671 C.3       1 <0>        -0.1152
     34 H3         -1.0857    9.3733    5.9576 H         1 <0>         0.0681
     35 H4          0.6196    9.5141    6.4480 H         1 <0>         0.0680
     36 H5          0.1537    9.8031    4.7545 H         1 <0>         0.0829
     37 H6          1.1901    7.5664    5.0233 H         1 <0>         0.0732
     38 H7         -0.5152    7.4257    4.5329 H         1 <0>         0.0733
     39 H8         -2.1814    5.7053   11.7170 H         1 <0>         0.1129
     40 H9         -1.9115    4.0021   12.1568 H         1 <0>         0.1014
     41 H10         1.6472    4.4010   12.8554 H         1 <0>         0.1021
     42 H11         0.3852    3.2517   12.8931 H         1 <0>         0.1067
     43 H12        -0.3224    7.3521   11.8862 H         1 <0>         0.0681
     44 H13         1.2969    6.8210   12.4001 H         1 <0>         0.0653
     45 H14         0.6649    6.3364   10.8082 H         1 <0>         0.0589
     46 H15        -0.9997    4.6563   14.3747 H         1 <0>         0.0623
     47 H16         0.3252    5.8401   14.4820 H         1 <0>         0.0659
     48 H17        -1.2995    6.3657   13.9798 H         1 <0>         0.0674
     49 H18        -3.3276    6.1435    8.1125 H         1 <0>         0.0773
     50 H19        -1.8648    7.0157    8.2324 H         1 <0>         0.0856
     51 H20        -2.4252    6.3528    6.6784 H         1 <0>         0.0560
     52 H21        -2.0455    2.8140    8.6301 H         1 <0>         0.1987
     53 H22        -2.7055   -1.6084    7.4767 H         1 <0>         0.1462
     54 H23        -1.2627   -3.4509    6.7403 H         1 <0>         0.1431
     55 H24         2.1673   -0.9266    6.9685 H         1 <0>         0.1440
     56 H25         1.7598   -3.9969    7.2386 H         1 <0>         0.0756
     57 H26         2.2637   -3.0558    5.8143 H         1 <0>         0.0715
     58 H27         0.8317   -4.1091    5.7239 H         1 <0>         0.0720
@<TRIPOS>BOND
     1    1    2 1
     2    1   34 1
     3    1   35 1
     4    1   36 1
     5    2    3 1
     6    2   37 1
     7    2   38 1
     8    3    4 1
     9    4    5 2
    10    4    6 1
    11    6    8 1
    12    6   20 2
    13    7   10 1
    14    8    9 1
    15    8   10 1
    16    8   22 1
    17   10   15 1
    18   10   11 1
    19   11   12 1
    20   11   19 2
    21   12   13 1
    22   12   39 1
    23   12   40 1
    24   13   14 1
    25   13   17 1
    26   13   18 1
    27   14   15 1
    28   14   41 1
    29   14   42 1
    30   15   16 2
    31   17   43 1
    32   17   44 1
    33   17   45 1
    34   18   46 1
    35   18   47 1
    36   18   48 1
    37   19   20 1
    38   20   21 1
    39   21   49 1
    40   21   50 1
    41   21   51 1
    42   22   31 1
    43   22   23 2
    44   23   24 1
    45   23   52 1
    46   24   25 1
    47   25   30 ar
    48   25   26 ar
    49   26   27 ar
    50   26   53 1
    51   27   28 ar
    52   27   54 1
    53   28   29 ar
    54   28   33 1
    55   29   30 ar
    56   29   55 1
    57   30   31 1
    58   31   32 2
    59   33   56 1
    60   33   57 1
    61   33   58 1
@<TRIPOS>MOLECULE
ZINC13634278
   43    47     0     0     0
SMALL
USER_CHARGES
(6S)-2-[(4-chlorophenyl)methylsulfanyl]-6-(2-furyl)-6,7-dihydro-5H-[1,2,4]triazolo[5,1-b]quinazolin-8-one
@<TRIPOS>ATOM
      1 C1          9.7309    3.4019   -0.8697 C.2       1 <0>        -0.2146
      2 C2          8.4393    3.3999   -1.4446 C.2       1 <0>        -0.1897
      3 C3          7.5626    3.2688   -0.4328 C.2       1 <0>        -0.0200
      4 O1          8.2512    3.1835    0.7170 O.3       1 <0>        -0.1722
      5 C4          9.5666    3.2636    0.4582 C.2       1 <0>        -0.0299
      6 C5          6.0624    3.2194   -0.5674 C.3       1 <0>         0.0056
      7 H1          5.7889    3.3113   -1.6186 H         1 <0>         0.1155
      8 C6          5.5464    1.8905   -0.0220 C.3       1 <0>        -0.0776
      9 C7          4.0426    1.8513   -0.0204 C.2       1 <0>         0.2814
     10 C8          3.2779    3.0386   -0.0160 C.2       1 <0>        -0.2785
     11 C9          1.8953    2.9592   -0.0035 C.2       1 <0>         0.2564
     12 N1          1.3188    1.7398   -0.0012 N.pl3     1 <0>        -0.3292
     13 C10         2.0899    0.6098   -0.0121 C.2       1 <0>         0.4738
     14 N2          3.4272    0.6898   -0.0205 N.2       1 <0>        -0.4595
     15 N3          1.2644   -0.4303   -0.0114 N.2       1 <0>        -0.5190
     16 C11         0.0021   -0.0041    0.0020 C.2       1 <0>         0.2528
     17 N4         -0.0158    1.3131    0.0093 N.2       1 <0>        -0.3042
     18 S1         -1.4223   -1.0413    0.0090 S.3       1 <0>         0.0572
     19 C12        -0.7411   -2.7224   -0.0061 C.3       1 <0>        -0.0721
     20 C13        -1.8692   -3.7216   -0.0015 C.ar      1 <0>        -0.0797
     21 C14        -2.3721   -4.1904    1.1978 C.ar      1 <0>        -0.0840
     22 C15        -3.4105   -5.1026    1.2027 C.ar      1 <0>        -0.1097
     23 C16        -3.9391   -5.5550    0.0068 C.ar      1 <0>        -0.0248
     24 C17        -3.4316   -5.0897   -1.1932 C.ar      1 <0>        -0.1097
     25 C18        -2.3969   -4.1733   -1.1967 C.ar      1 <0>        -0.0840
     26 Cl1        -5.2390   -6.7056    0.0121 Cl        1 <0>        -0.0636
     27 C19         3.9462    4.3491   -0.0284 C.2       1 <0>         0.4235
     28 O2          3.3248    5.3702   -0.2344 O.2       1 <0>        -0.4327
     29 C20         5.4399    4.3759    0.2252 C.3       1 <0>        -0.1464
     30 H2         10.6696    3.4926   -1.3961 H         1 <0>         0.1507
     31 H3          8.2019    3.4889   -2.4944 H         1 <0>         0.1508
     32 H4         10.3582    3.2241    1.1919 H         1 <0>         0.2055
     33 H5          5.9084    1.7578    0.9975 H         1 <0>         0.1183
     34 H6          5.9244    1.0789   -0.6439 H         1 <0>         0.1170
     35 H7          1.2915    3.8547    0.0040 H         1 <0>         0.2002
     36 H8         -0.1363   -2.8614   -0.9022 H         1 <0>         0.1104
     37 H9         -0.1206   -2.8709    0.8777 H         1 <0>         0.1104
     38 H10        -1.9564   -3.8405    2.1312 H         1 <0>         0.1378
     39 H11        -3.8062   -5.4654    2.1398 H         1 <0>         0.1387
     40 H12        -3.8441   -5.4422   -2.1270 H         1 <0>         0.1388
     41 H13        -2.0009   -3.8097   -2.1334 H         1 <0>         0.1378
     42 H14         5.6344    4.2556    1.1987 H         1 <0>         0.1053
     43 H15         5.8572    5.3240   -0.1139 H         1 <0>         0.1131
@<TRIPOS>BOND
     1    1    5 2
     2    1    2 1
     3    1   30 1
     4    2    3 2
     5    2   31 1
     6    3    4 1
     7    3    6 1
     8    4    5 1
     9    5   32 1
    10    6    7 1
    11    6   29 1
    12    6    8 1
    13    8    9 1
    14    8   33 1
    15    8   34 1
    16    9   14 2
    17    9   10 1
    18   10   11 2
    19   10   27 1
    20   11   12 1
    21   11   35 1
    22   12   17 1
    23   12   13 1
    24   13   14 1
    25   13   15 2
    26   15   16 1
    27   16   17 2
    28   16   18 1
    29   18   19 1
    30   19   20 1
    31   19   36 1
    32   19   37 1
    33   20   25 ar
    34   20   21 ar
    35   21   22 ar
    36   21   38 1
    37   22   23 ar
    38   22   39 1
    39   23   24 ar
    40   23   26 1
    41   24   25 ar
    42   24   40 1
    43   25   41 1
    44   27   28 2
    45   27   29 1
    46   29   42 1
    47   29   43 1
@<TRIPOS>MOLECULE
ZINC13554798
   54    57     0     0     0
SMALL
USER_CHARGES
(NZ)-N-[(3aR,6aR)-3-(2-methoxyphenyl)-5,5-dioxo-3a,4,6,6a-tetrahydrothieno[3,4-d]thiazol-2-ylidene]-2-cyclohexyl-acetamide
@<TRIPOS>ATOM
      1 C1         -2.3588    5.2433    0.0538 C.3       1 <0>         0.0179
      2 O1         -2.4210    3.8156    0.0467 O.3       1 <0>        -0.3121
      3 C2         -1.2375    3.1462    0.0313 C.ar      1 <0>         0.1473
      4 C3         -0.0429    3.8479    0.0232 C.ar      1 <0>        -0.2011
      5 C4          1.1596    3.1659    0.0076 C.ar      1 <0>        -0.0631
      6 C5          1.1746    1.7832    0.0004 C.ar      1 <0>        -0.1463
      7 C6         -0.0126    1.0758    0.0080 C.ar      1 <0>        -0.0612
      8 C7         -1.2232    1.7533    0.0174 C.ar      1 <0>         0.0918
      9 N1         -2.4279    1.0386    0.0192 N.pl3     1 <0>        -0.5231
     10 C8         -3.0568    0.6823   -1.2375 C.3       1 <0>         0.1382
     11 H1         -2.3117    0.0449   -1.7360 H         1 <0>         0.1235
     12 C9         -3.3435    1.9745   -2.0654 C.3       1 <0>        -0.5979
     13 S1         -4.8982    1.5239   -2.9496 S.o2      1 <0>         2.3724
     14 O2         -4.5785    0.7598   -4.1042 O.2       1 <0>        -0.9174
     15 O3         -5.7214    2.6759   -3.0709 O.2       1 <0>        -0.9198
     16 C10        -5.5933    0.4096   -1.6521 C.3       1 <0>        -0.5607
     17 C11        -4.3036   -0.1924   -1.0611 C.3       1 <0>        -0.1308
     18 H2         -4.1849   -1.0688   -1.7151 H         1 <0>         0.1573
     19 S2         -4.4524   -0.2531    0.7630 S.3       1 <0>         0.0111
     20 C12        -3.0036    0.6879    1.1983 C.2       1 <0>         0.4871
     21 N2         -2.5762    0.9850    2.4203 N.2       1 <0>        -0.5973
     22 C13        -3.2567    0.5646    3.4836 C.2       1 <0>         0.4909
     23 O4         -4.2696   -0.0913    3.3366 O.2       1 <0>        -0.5155
     24 C14        -2.7719    0.9017    4.8701 C.3       1 <0>        -0.1116
     25 C15        -3.7276    0.3033    5.9042 C.3       1 <0>        -0.0747
     26 C16        -5.0975    0.9734    5.7804 C.3       1 <0>        -0.1196
     27 C17        -6.0533    0.3750    6.8144 C.3       1 <0>        -0.1176
     28 C18        -5.4960    0.6095    8.2199 C.3       1 <0>        -0.1214
     29 C19        -4.1261   -0.0606    8.3437 C.3       1 <0>        -0.1193
     30 C20        -3.1703    0.5379    7.3096 C.3       1 <0>        -0.1148
     31 H3         -3.3789    5.6547    0.0662 H         1 <0>         0.1067
     32 H4         -1.8337    5.5919   -0.8478 H         1 <0>         0.0611
     33 H5         -1.8159    5.5822    0.9484 H         1 <0>         0.0621
     34 H6         -0.0510    4.9278    0.0295 H         1 <0>         0.1363
     35 H7          2.0898    3.7145    0.0013 H         1 <0>         0.1323
     36 H8          2.1164    1.2548   -0.0114 H         1 <0>         0.1334
     37 H9          0.0021   -0.0041    0.0020 H         1 <0>         0.1330
     38 H10        -3.4674    2.8277   -1.3822 H         1 <0>         0.1673
     39 H11        -2.5010    2.1687   -2.7455 H         1 <0>         0.1546
     40 H12        -6.1718    1.0042   -0.9297 H         1 <0>         0.1532
     41 H13        -6.2506   -0.3362   -2.1230 H         1 <0>         0.1589
     42 H14        -1.7645    0.4852    5.0176 H         1 <0>         0.0965
     43 H15        -2.7382    1.9945    4.9912 H         1 <0>         0.0958
     44 H16        -3.8305   -0.7773    5.7263 H         1 <0>         0.0770
     45 H17        -4.9945    2.0540    5.9584 H         1 <0>         0.0539
     46 H18        -5.4982    0.8048    4.7699 H         1 <0>         0.0786
     47 H19        -7.0382    0.8568    6.7254 H         1 <0>         0.0589
     48 H20        -6.1563   -0.7056    6.6364 H         1 <0>         0.0614
     49 H21        -5.3930    1.6901    8.3979 H         1 <0>         0.0600
     50 H22        -6.1832    0.1793    8.9633 H         1 <0>         0.0594
     51 H23        -3.7254    0.1080    9.3542 H         1 <0>         0.0612
     52 H24        -4.2291   -1.1412    8.1657 H         1 <0>         0.0616
     53 H25        -2.1854    0.0562    7.3986 H         1 <0>         0.0620
     54 H26        -3.0674    1.6185    7.4876 H         1 <0>         0.0626
@<TRIPOS>BOND
     1    1    2 1
     2    1   31 1
     3    1   32 1
     4    1   33 1
     5    2    3 1
     6    3    8 ar
     7    3    4 ar
     8    4    5 ar
     9    4   34 1
    10    5    6 ar
    11    5   35 1
    12    6    7 ar
    13    6   36 1
    14    7    8 ar
    15    7   37 1
    16    8    9 1
    17    9   20 1
    18    9   10 1
    19   10   11 1
    20   10   17 1
    21   10   12 1
    22   12   13 1
    23   12   38 1
    24   12   39 1
    25   13   14 2
    26   13   15 2
    27   13   16 1
    28   16   17 1
    29   16   40 1
    30   16   41 1
    31   17   18 1
    32   17   19 1
    33   19   20 1
    34   20   21 2
    35   21   22 1
    36   22   23 2
    37   22   24 1
    38   24   25 1
    39   24   42 1
    40   24   43 1
    41   25   30 1
    42   25   26 1
    43   25   44 1
    44   26   27 1
    45   26   45 1
    46   26   46 1
    47   27   28 1
    48   27   47 1
    49   27   48 1
    50   28   29 1
    51   28   49 1
    52   28   50 1
    53   29   30 1
    54   29   51 1
    55   29   52 1
    56   30   53 1
    57   30   54 1
@<TRIPOS>MOLECULE
ZINC00707820
   47    50     0     0     0
SMALL
USER_CHARGES

@<TRIPOS>ATOM
      1 C1         -0.0112    1.3857    0.0921 C.ar      1 <0>        -0.0857
      2 C2          0.1151    0.1592    0.7198 C.ar      1 <0>        -0.1250
      3 C3          1.3161   -0.5184    0.6813 C.ar      1 <0>        -0.0919
      4 C4          2.4053    0.0358    0.0066 C.ar      1 <0>        -0.1404
      5 C5          2.2709    1.2735   -0.6250 C.ar      1 <0>        -0.0560
      6 C6          1.0644    1.9408   -0.5784 C.ar      1 <0>        -0.1239
      7 C7          3.6952   -0.6842   -0.0384 C.2       1 <0>         0.5610
      8 O1          4.7336   -0.0641   -0.1604 O.2       1 <0>        -0.4898
      9 N1          3.7201   -2.0285    0.0559 N.am      1 <0>        -0.5501
     10 C8          2.5347   -2.7504    0.0591 C.2       1 <0>         0.0794
     11 C9          2.4578   -3.8903    0.7593 C.2       1 <0>        -0.1602
     12 C10         3.6418   -4.3508    1.5107 C.ar      1 <0>        -0.0280
     13 C11         3.5272   -5.3331    2.4935 C.ar      1 <0>        -0.1022
     14 C12         4.6507   -5.7437    3.1823 C.ar      1 <0>        -0.1018
     15 C13         5.8843   -5.1834    2.9003 C.ar      1 <0>        -0.1134
     16 C14         6.0044   -4.2084    1.9247 C.ar      1 <0>        -0.0935
     17 C15         4.8916   -3.7915    1.2287 C.ar      1 <0>        -0.1064
     18 C16         5.0016   -2.7386    0.1496 C.3       1 <0>         0.3363
     19 C17         5.3187   -3.4036   -1.1913 C.3       1 <0>        -0.0896
     20 C18         5.4069   -2.3506   -2.2658 C.ar      1 <0>        -0.0362
     21 C19         4.2752   -1.9861   -2.9709 C.ar      1 <0>        -0.1088
     22 C20         4.3561   -1.0202   -3.9565 C.ar      1 <0>        -0.0513
     23 C21         5.5687   -0.4186   -4.2367 C.ar      1 <0>        -0.0451
     24 C22         6.7003   -0.7824   -3.5309 C.ar      1 <0>        -0.0457
     25 C23         6.6185   -1.7452   -2.5424 C.ar      1 <0>        -0.1012
     26 N2          5.6556    0.6150   -5.2927 N.pl3     1 <0>         0.0332
     27 O2          4.6660    0.9329   -5.9102 O.2       1 <0>        -0.1571
     28 O3          6.7161    1.1412   -5.5377 O.3       1 <0>        -0.1571
     29 C24         6.0693   -1.7862    0.4957 C.1       1 <0>         0.2002
     30 N3          6.8932   -1.0511    0.7628 N.1       1 <0>        -0.3712
     31 H1         -0.9548    1.9102    0.1218 H         1 <0>         0.1313
     32 H2         -0.7284   -0.2685    1.2414 H         1 <0>         0.1335
     33 H3          1.4135   -1.4754    1.1723 H         1 <0>         0.1404
     34 H4          3.1098    1.7080   -1.1484 H         1 <0>         0.1309
     35 H5          0.9591    2.8983   -1.0666 H         1 <0>         0.1333
     36 H6          1.6804   -2.3959   -0.4984 H         1 <0>         0.1650
     37 H7          1.5427   -4.4636    0.7739 H         1 <0>         0.1516
     38 H8          2.5646   -5.7699    2.7149 H         1 <0>         0.1342
     39 H9          4.5667   -6.5046    3.9441 H         1 <0>         0.1307
     40 H10         6.7585   -5.5085    3.4448 H         1 <0>         0.1303
     41 H11         6.9699   -3.7747    1.7100 H         1 <0>         0.1248
     42 H12         6.2703   -3.9303   -1.1197 H         1 <0>         0.1092
     43 H13         4.5291   -4.1123   -1.4411 H         1 <0>         0.1116
     44 H14         3.3278   -2.4562   -2.7520 H         1 <0>         0.1446
     45 H15         3.4721   -0.7360   -4.5079 H         1 <0>         0.1540
     46 H16         7.6477   -0.3126   -3.7501 H         1 <0>         0.1539
     47 H17         7.5018   -2.0269   -1.9885 H         1 <0>         0.1422
@<TRIPOS>BOND
     1    1    6 ar
     2    1    2 ar
     3    1   31 1
     4    2    3 ar
     5    2   32 1
     6    3    4 ar
     7    3   33 1
     8    4    5 ar
     9    4    7 1
    10    5    6 ar
    11    5   34 1
    12    6   35 1
    13    7    8 2
    14    7    9 am
    15    9   18 1
    16    9   10 1
    17   10   11 2
    18   10   36 1
    19   11   12 1
    20   11   37 1
    21   12   17 ar
    22   12   13 ar
    23   13   14 ar
    24   13   38 1
    25   14   15 ar
    26   14   39 1
    27   15   16 ar
    28   15   40 1
    29   16   17 ar
    30   16   41 1
    31   17   18 1
    32   18   19 1
    33   18   29 1
    34   19   20 1
    35   19   42 1
    36   19   43 1
    37   20   25 ar
    38   20   21 ar
    39   21   22 ar
    40   21   44 1
    41   22   23 ar
    42   22   45 1
    43   23   24 ar
    44   23   26 1
    45   24   25 ar
    46   24   46 1
    47   25   47 1
    48   26   27 2
    49   26   28 1
    50   29   30 3
@<TRIPOS>MOLECULE
ZINC58203127
   60    63     0     0     0
SMALL
USER_CHARGES

@<TRIPOS>ATOM
      1 C1         -0.2865    1.5169    0.4264 C.3       1 <0>        -0.1744
      2 C2         -0.4235    0.0215    0.7198 C.3       1 <0>         0.1276
      3 N1          0.3848   -0.3221    1.8924 N.pl3     1 <0>        -0.6364
      4 C3          1.7927   -0.7322    1.7538 C.3       1 <0>         0.0983
      5 C4          2.5889   -0.0408    2.8698 C.3       1 <0>         0.0610
      6 H1          2.5200    1.0406    2.7517 H         1 <0>         0.0798
      7 O1          2.0373   -0.4210    4.1327 O.3       1 <0>        -0.3078
      8 C5          0.6910   -0.3205    4.2917 C.ar      1 <0>         0.0594
      9 C6         -0.1541   -0.2663    3.1875 C.ar      1 <0>         0.1426
     10 C7         -1.5240   -0.1625    3.3658 C.ar      1 <0>        -0.1581
     11 C8         -2.0501   -0.1053    4.6439 C.ar      1 <0>        -0.1071
     12 C9         -1.2105   -0.1513    5.7408 C.ar      1 <0>        -0.1371
     13 C10         0.1531   -0.2668    5.5682 C.ar      1 <0>        -0.1072
     14 C11         4.0550   -0.4723    2.7966 C.3       1 <0>         0.1300
     15 N2          4.8123    0.1887    3.8623 N.am      1 <0>        -0.6025
     16 C12         4.9440   -0.4521    5.1731 C.3       1 <0>         0.0811
     17 C13         5.3879    1.3864    3.6369 C.2       1 <0>         0.6073
     18 O2          5.1988    1.9634    2.5824 O.2       1 <0>        -0.5152
     19 C14         6.2430    1.9947    4.6634 C.2       1 <0>        -0.1047
     20 C15         6.7786    3.2486    4.6090 C.2       1 <0>        -0.0176
     21 C16         7.5195    3.4097    5.7896 C.2       1 <0>        -0.2828
     22 C17         7.3986    2.2288    6.5138 C.2       1 <0>         0.0870
     23 O3          6.6237    1.4057    5.8203 O.3       1 <0>        -0.1353
     24 C18         8.0669    2.0163    7.8481 C.3       1 <0>        -0.0404
     25 C19         9.2256    3.0065    7.9965 C.3       1 <0>        -0.0532
     26 C20         8.7495    4.4398    7.7401 C.3       1 <0>        -0.1561
     27 C21         8.3094    4.5463    6.2873 C.2       1 <0>         0.4295
     28 O4          8.5896    5.4990    5.5905 O.2       1 <0>        -0.4447
     29 C22         9.7926    2.9099    9.4143 C.3       1 <0>        -0.1423
     30 C23        10.3230    2.6525    6.9908 C.3       1 <0>        -0.1568
     31 C24         6.6085    4.2578    3.5028 C.3       1 <0>        -0.1035
     32 H2          0.7589    1.7542    0.2293 H         1 <0>         0.0563
     33 H3         -0.8878    1.7725   -0.4460 H         1 <0>         0.0664
     34 H4         -0.6330    2.0892    1.2869 H         1 <0>         0.0569
     35 H5         -1.4689   -0.2158    0.9169 H         1 <0>         0.0773
     36 H6         -0.0770   -0.5508   -0.1407 H         1 <0>         0.0753
     37 H7          1.8746   -1.8142    1.8568 H         1 <0>         0.0733
     38 H8          2.1742   -0.4224    0.7809 H         1 <0>         0.0946
     39 H9         -2.1800   -0.1260    2.5086 H         1 <0>         0.1247
     40 H10        -3.1178   -0.0243    4.7847 H         1 <0>         0.1234
     41 H11        -1.6247   -0.1050    6.7371 H         1 <0>         0.1255
     42 H12         0.8035   -0.3020    6.4296 H         1 <0>         0.1273
     43 H13         4.1222   -1.5532    2.9198 H         1 <0>         0.0951
     44 H14         4.4687   -0.1905    1.8284 H         1 <0>         0.1087
     45 H15         5.8809   -1.0077    5.2134 H         1 <0>         0.0595
     46 H16         4.9398    0.3101    5.9523 H         1 <0>         0.0756
     47 H17         4.1093   -1.1356    5.3289 H         1 <0>         0.0864
     48 H18         7.3440    2.1796    8.6474 H         1 <0>         0.1077
     49 H19         8.4495    0.9972    7.9053 H         1 <0>         0.1025
     50 H20         7.9099    4.6707    8.3958 H         1 <0>         0.1054
     51 H21         9.5657    5.1371    7.9285 H         1 <0>         0.1015
     52 H22        10.1525    1.8967    9.5935 H         1 <0>         0.0656
     53 H23        10.6179    3.6134    9.5243 H         1 <0>         0.0674
     54 H24         9.0114    3.1508   10.1352 H         1 <0>         0.0637
     55 H25         9.9209    2.7094    5.9793 H         1 <0>         0.0575
     56 H26        11.1500    3.3551    7.0931 H         1 <0>         0.0665
     57 H27        10.6799    1.6408    7.1836 H         1 <0>         0.0662
     58 H28         5.7354    4.8774    3.7074 H         1 <0>         0.0775
     59 H29         7.4961    4.8881    3.4464 H         1 <0>         0.0803
     60 H30         6.4711    3.7380    2.5547 H         1 <0>         0.0914
@<TRIPOS>BOND
     1    1    2 1
     2    1   32 1
     3    1   33 1
     4    1   34 1
     5    2    3 1
     6    2   35 1
     7    2   36 1
     8    3    9 1
     9    3    4 1
    10    4    5 1
    11    4   37 1
    12    4   38 1
    13    5    6 1
    14    5    7 1
    15    5   14 1
    16    7    8 1
    17    8   13 ar
    18    8    9 ar
    19    9   10 ar
    20   10   11 ar
    21   10   39 1
    22   11   12 ar
    23   11   40 1
    24   12   13 ar
    25   12   41 1
    26   13   42 1
    27   14   15 1
    28   14   43 1
    29   14   44 1
    30   15   16 1
    31   15   17 am
    32   16   45 1
    33   16   46 1
    34   16   47 1
    35   17   18 2
    36   17   19 1
    37   19   23 1
    38   19   20 2
    39   20   21 1
    40   20   31 1
    41   21   27 1
    42   21   22 2
    43   22   23 1
    44   22   24 1
    45   24   25 1
    46   24   48 1
    47   24   49 1
    48   25   26 1
    49   25   29 1
    50   25   30 1
    51   26   27 1
    52   26   50 1
    53   26   51 1
    54   27   28 2
    55   29   52 1
    56   29   53 1
    57   29   54 1
    58   30   55 1
    59   30   56 1
    60   30   57 1
    61   31   58 1
    62   31   59 1
    63   31   60 1
@<TRIPOS>MOLECULE
ZINC04097884
   65    69     0     0     0
SMALL
USER_CHARGES
[acetoxymethyl-(4,6-dioxabicyclo[3.3.0]oct-2-en-7-yl)-dimethyl-BLAHyl] acetate
@<TRIPOS>ATOM
      1 C1         -0.0859    2.3626    2.7304 C.3       1 <0>        -0.1522
      2 C2          1.4210    2.2477    2.4758 C.3       1 <0>        -0.0804
      3 H1          1.7022    1.1902    2.5220 H         1 <0>         0.0778
      4 C3          2.1760    3.0117    3.5563 C.3       1 <0>        -0.1303
      5 C4          3.6821    2.9151    3.3026 C.3       1 <0>         0.0975
      6 H2          3.9742    1.8653    3.2880 H         1 <0>         0.0897
      7 C5          4.0137    3.5648    1.9603 C.3       1 <0>        -0.0140
      8 C6          3.2273    2.8920    0.8411 C.3       1 <0>        -0.0551
      9 H3          3.6148    1.8459    0.7764 H         1 <0>         0.0825
     10 C7          1.7357    2.7805    1.0768 C.3       1 <0>        -0.0409
     11 C8          0.9998    4.0983    0.8409 C.3       1 <0>        -0.1478
     12 C9          1.1635    1.7497    0.0738 C.3       1 <0>         0.0854
     13 H4          0.0999    1.6032    0.2621 H         1 <0>         0.0833
     14 C10         1.9066    0.4125    0.2218 C.3       1 <0>        -0.1478
     15 C11         2.5136    0.1363   -1.1698 C.3       1 <0>        -0.1148
     16 H5          3.5992    0.2279   -1.2026 H         1 <0>         0.1120
     17 C12         1.9935   -1.2050   -1.6615 C.2       1 <0>        -0.2802
     18 C13         0.9116   -0.9722   -2.3724 C.2       1 <0>         0.0468
     19 O1          0.5857    0.3384   -2.4489 O.3       1 <0>        -0.3281
     20 C14         1.7410    1.1199   -2.0976 C.3       1 <0>         0.2262
     21 H6          2.3218    1.4266   -2.9675 H         1 <0>         0.1439
     22 O2          1.3580    2.2168   -1.2635 O.3       1 <0>        -0.3336
     23 C15         3.5669    3.5418   -0.4983 C.3       1 <0>        -0.1369
     24 C16         5.0440    3.2854   -0.8202 C.3       1 <0>        -0.1164
     25 C17         5.9351    3.8909    0.2651 C.3       1 <0>        -0.0977
     26 C18         5.5048    3.3700    1.6388 C.3       1 <0>         0.0368
     27 C19         6.2161    2.1396    2.1898 C.3       1 <0>        -0.0472
     28 O3          6.4386    3.4528    2.7106 O.3       1 <0>        -0.3170
     29 C20         3.7513    5.0685    2.0469 C.3       1 <0>         0.0764
     30 O4          4.6293    5.6564    3.0428 O.3       1 <0>        -0.3227
     31 C21         4.5244    6.9796    3.2426 C.2       1 <0>         0.4556
     32 O5          3.7254    7.6252    2.6064 O.2       1 <0>        -0.5219
     33 C22         5.4032    7.6600    4.2604 C.3       1 <0>        -0.1462
     34 O6          4.3896    3.6033    4.3684 O.3       1 <0>        -0.3148
     35 C23         4.7294    2.8750    5.4436 C.2       1 <0>         0.4599
     36 O7          4.4453    1.7017    5.4929 O.2       1 <0>        -0.5235
     37 C24         5.4652    3.5209    6.5893 C.3       1 <0>        -0.1476
     38 H7         -0.6296    1.8829    1.9165 H         1 <0>         0.0617
     39 H8         -0.3338    1.8722    3.6717 H         1 <0>         0.0582
     40 H9         -0.3661    3.4146    2.7840 H         1 <0>         0.0631
     41 H10         1.9574    2.5556    4.5306 H         1 <0>         0.0735
     42 H11         1.8548    4.0476    3.5896 H         1 <0>         0.0778
     43 H12        -0.0758    3.9225    0.8614 H         1 <0>         0.0645
     44 H13         1.2668    4.8087    1.6234 H         1 <0>         0.0577
     45 H14         1.2832    4.5040   -0.1303 H         1 <0>         0.0698
     46 H15         1.2098   -0.3799    0.4951 H         1 <0>         0.0841
     47 H16         2.6957    0.4983    0.9689 H         1 <0>         0.0885
     48 H17         2.4322   -2.1719   -1.4636 H         1 <0>         0.1489
     49 H18         0.3384   -1.7531   -2.8500 H         1 <0>         0.1754
     50 H19         2.9641    3.0970   -1.2939 H         1 <0>         0.1064
     51 H20         3.3827    4.6109   -0.4802 H         1 <0>         0.0677
     52 H21         5.2837    3.7392   -1.7826 H         1 <0>         0.0736
     53 H22         5.2172    2.2105   -0.8766 H         1 <0>         0.0646
     54 H23         5.8664    4.9769    0.2373 H         1 <0>         0.0748
     55 H24         6.9730    3.5985    0.0818 H         1 <0>         0.0737
     56 H25         5.6522    1.4384    2.8005 H         1 <0>         0.1039
     57 H26         7.0105    1.6978    1.5841 H         1 <0>         0.1079
     58 H27         3.9434    5.5272    1.0770 H         1 <0>         0.0762
     59 H28         2.7131    5.2404    2.3310 H         1 <0>         0.0806
     60 H29         6.3254    7.9896    3.7817 H         1 <0>         0.1019
     61 H30         4.8800    8.5222    4.6737 H         1 <0>         0.0999
     62 H31         5.6399    6.9601    5.0618 H         1 <0>         0.0931
     63 H32         4.7458    3.9123    7.3085 H         1 <0>         0.1014
     64 H33         6.1002    2.7810    7.0765 H         1 <0>         0.0998
     65 H34         6.0817    4.3365    6.2114 H         1 <0>         0.0947
@<TRIPOS>BOND
     1    1    2 1
     2    1   38 1
     3    1   39 1
     4    1   40 1
     5    2    3 1
     6    2   10 1
     7    2    4 1
     8    4    5 1
     9    4   41 1
    10    4   42 1
    11    5    6 1
    12    5    7 1
    13    5   34 1
    14    7   26 1
    15    7    8 1
    16    7   29 1
    17    8    9 1
    18    8   10 1
    19    8   23 1
    20   10   11 1
    21   10   12 1
    22   11   43 1
    23   11   44 1
    24   11   45 1
    25   12   13 1
    26   12   22 1
    27   12   14 1
    28   14   15 1
    29   14   46 1
    30   14   47 1
    31   15   16 1
    32   15   20 1
    33   15   17 1
    34   17   18 2
    35   17   48 1
    36   18   19 1
    37   18   49 1
    38   19   20 1
    39   20   21 1
    40   20   22 1
    41   23   24 1
    42   23   50 1
    43   23   51 1
    44   24   25 1
    45   24   52 1
    46   24   53 1
    47   25   26 1
    48   25   54 1
    49   25   55 1
    50   26   28 1
    51   26   27 1
    52   27   28 1
    53   27   56 1
    54   27   57 1
    55   29   30 1
    56   29   58 1
    57   29   59 1
    58   30   31 1
    59   31   32 2
    60   31   33 1
    61   33   60 1
    62   33   61 1
    63   33   62 1
    64   34   35 1
    65   35   36 2
    66   35   37 1
    67   37   63 1
    68   37   64 1
    69   37   65 1
@<TRIPOS>MOLECULE
ZINC11683244
   49    52     0     0     0
SMALL
USER_CHARGES
N-(2,3-dimethylphenyl)-N-[4-[(7-methyl-3,5,7,8-tetrazabicyclo[4.3.0]nona-2,4,8,10-tetraen-2-yl)sulfanylmethyl]thiazol-2-yl]-acetamide
@<TRIPOS>ATOM
      1 C1         -0.5295   -4.8669   -2.8395 C.3       1 <0>        -0.1210
      2 C2         -0.5703   -4.2209   -1.4785 C.ar      1 <0>        -0.0759
      3 C3         -0.3790   -4.9881   -0.3437 C.ar      1 <0>        -0.0947
      4 C4         -0.4158   -4.3991    0.9066 C.ar      1 <0>        -0.1095
      5 C5         -0.6381   -3.0410    1.0257 C.ar      1 <0>        -0.1021
      6 C6         -0.8366   -2.2692   -0.1113 C.ar      1 <0>         0.0992
      7 C7         -0.7991   -2.8638   -1.3658 C.ar      1 <0>        -0.0630
      8 C8         -1.0083   -2.0289   -2.6028 C.3       1 <0>        -0.1243
      9 N1         -1.0684   -0.8929    0.0064 N.am      1 <0>        -0.4660
     10 C9          0.0022   -0.0042    0.0031 C.2       1 <0>         0.3149
     11 N2         -0.0155    1.3143    0.0123 N.2       1 <0>        -0.5027
     12 C10         1.1027    2.0127    0.0069 C.2       1 <0>         0.0887
     13 C11         2.2819    1.3441   -0.0084 C.2       1 <0>        -0.2134
     14 S1          1.7045   -0.3469   -0.0148 S.3       1 <0>         0.0813
     15 C12         1.0708    3.5193    0.0180 C.3       1 <0>        -0.0320
     16 S2          1.0747    4.1103    1.7288 S.3       1 <0>         0.0044
     17 C13         1.0350    5.8499    1.4517 C.ar      1 <0>         0.2447
     18 C14         1.0203    6.7531    2.5333 C.ar      1 <0>        -0.2685
     19 C15         1.0425    6.6197    3.9381 C.2       1 <0>         0.1062
     20 N3          1.0218    7.8105    4.4661 N.2       1 <0>        -0.2378
     21 N4          0.9913    8.7758    3.4517 N.pl3     1 <0>        -0.3794
     22 C16         0.9938    8.1323    2.2501 C.ar      1 <0>         0.3536
     23 N5          0.9732    8.5266    0.9774 N.ar      1 <0>        -0.5423
     24 C17         0.9829    7.6456    0.0013 C.ar      1 <0>         0.3629
     25 N6          1.0127    6.3425    0.2173 N.ar      1 <0>        -0.5566
     26 C18         0.9614   10.2272    3.6483 C.3       1 <0>         0.1081
     27 C19        -2.3286   -0.4294    0.1229 C.2       1 <0>         0.5130
     28 O1         -2.5369    0.7654    0.1320 O.2       1 <0>        -0.4656
     29 C20        -3.4789   -1.3957    0.2418 C.3       1 <0>        -0.1688
     30 H1          0.4917   -4.8478   -3.2202 H         1 <0>         0.0762
     31 H2         -0.8690   -5.8998   -2.7617 H         1 <0>         0.0717
     32 H3         -1.1816   -4.3204   -3.5208 H         1 <0>         0.0736
     33 H4         -0.2010   -6.0494   -0.4344 H         1 <0>         0.1324
     34 H5         -0.2661   -5.0008    1.7909 H         1 <0>         0.1352
     35 H6         -0.6622   -2.5807    2.0024 H         1 <0>         0.1312
     36 H7         -0.0476   -1.6523   -2.9539 H         1 <0>         0.0769
     37 H8         -1.4652   -2.6403   -3.3809 H         1 <0>         0.0814
     38 H9         -1.6636   -1.1900   -2.3683 H         1 <0>         0.0640
     39 H10         3.2915    1.7276   -0.0147 H         1 <0>         0.2040
     40 H11         1.9478    3.9052   -0.5017 H         1 <0>         0.1162
     41 H12         0.1683    3.8673   -0.4846 H         1 <0>         0.1168
     42 H13         1.0675    5.6878    4.4834 H         1 <0>         0.2023
     43 H14         0.9656    8.0016   -1.0182 H         1 <0>         0.2079
     44 H15        -0.0734   10.5646    3.7070 H         1 <0>         0.0768
     45 H16         1.4788   10.4792    4.5740 H         1 <0>         0.0935
     46 H17         1.4565   10.7177    2.8102 H         1 <0>         0.0935
     47 H18        -3.0936   -2.4133    0.3047 H         1 <0>         0.0850
     48 H19        -4.0530   -1.1684    1.1401 H         1 <0>         0.1045
     49 H20        -4.1222   -1.3042   -0.6334 H         1 <0>         0.1033
@<TRIPOS>BOND
     1    1    2 1
     2    1   30 1
     3    1   31 1
     4    1   32 1
     5    2    7 ar
     6    2    3 ar
     7    3    4 ar
     8    3   33 1
     9    4    5 ar
    10    4   34 1
    11    5    6 ar
    12    5   35 1
    13    6    7 ar
    14    6    9 1
    15    7    8 1
    16    8   36 1
    17    8   37 1
    18    8   38 1
    19    9   10 1
    20    9   27 am
    21   10   14 1
    22   10   11 2
    23   11   12 1
    24   12   13 2
    25   12   15 1
    26   13   14 1
    27   13   39 1
    28   15   16 1
    29   15   40 1
    30   15   41 1
    31   16   17 1
    32   17   25 ar
    33   17   18 ar
    34   18   22 ar
    35   18   19 1
    36   19   20 2
    37   19   42 1
    38   20   21 1
    39   21   22 1
    40   21   26 1
    41   22   23 ar
    42   23   24 ar
    43   24   25 ar
    44   24   43 1
    45   26   44 1
    46   26   45 1
    47   26   46 1
    48   27   28 2
    49   27   29 1
    50   29   47 1
    51   29   48 1
    52   29   49 1
@<TRIPOS>MOLECULE
ZINC24839863
   40    42     0     0     0
SMALL
USER_CHARGES
(4-bromo-2-propanoyl-phenyl) 3-methyl-2-oxo-1,3-benzoxazole-6-sulfonate
@<TRIPOS>ATOM
      1 C1          0.2888    4.2169    3.4216 C.3       1 <0>        -0.1496
      2 C2         -0.8720    3.2274    3.5414 C.3       1 <0>        -0.1687
      3 C3         -0.5282    1.9582    2.8053 C.2       1 <0>         0.3782
      4 O1          0.5403    1.8552    2.2404 O.2       1 <0>        -0.4215
      5 C4         -1.4862    0.8466    2.7718 C.ar      1 <0>        -0.1642
      6 C5         -2.7230    0.9625    3.4179 C.ar      1 <0>        -0.0311
      7 C6         -3.6145   -0.0872    3.3864 C.ar      1 <0>        -0.0904
      8 C7         -3.2952   -1.2570    2.7132 C.ar      1 <0>        -0.0404
      9 C8         -2.0817   -1.3835    2.0673 C.ar      1 <0>        -0.0963
     10 C9         -1.1704   -0.3383    2.0872 C.ar      1 <0>         0.1314
     11 O2          0.0221   -0.4618    1.4534 O.3       1 <0>        -0.6423
     12 S1          0.0021   -0.0041    0.0020 S.o2      1 <0>         2.6886
     13 O3         -1.2429   -0.4241   -0.5392 O.2       1 <0>        -0.9473
     14 O4          1.2475   -0.3902   -0.5628 O.2       1 <0>        -0.9137
     15 C10        -0.0218    1.7577    0.0117 C.ar      1 <0>        -0.6731
     16 C11         1.1692    2.4628    0.0041 C.ar      1 <0>         0.0456
     17 C12         1.1587    3.8440    0.0121 C.ar      1 <0>        -0.1176
     18 C13        -0.0489    4.5242    0.0273 C.ar      1 <0>         0.1299
     19 C14        -1.2496    3.8147    0.0345 C.ar      1 <0>         0.0135
     20 C15        -1.2291    2.4287    0.0211 C.ar      1 <0>         0.0034
     21 O5         -2.2546    4.7242    0.0491 O.3       1 <0>        -0.2301
     22 C16        -1.7309    5.9601    0.0512 C.2       1 <0>         0.6363
     23 O6         -2.3708    6.9940    0.0637 O.2       1 <0>        -0.4737
     24 N1         -0.3857    5.8775    0.0382 N.am      1 <0>        -0.5480
     25 C17         0.5515    7.0035    0.0362 C.3       1 <0>         0.0886
     26 Br1        -5.2820    0.0678    4.2648 Br        1 <0>        -0.0173
     27 H1          0.0378    5.1433    3.9589 H         1 <0>         0.0642
     28 H2          0.4678    4.4454    2.3606 H         1 <0>         0.0593
     29 H3          1.1953    3.7733    3.8592 H         1 <0>         0.0675
     30 H4         -1.0510    2.9989    4.6024 H         1 <0>         0.1075
     31 H5         -1.7786    3.6709    3.1039 H         1 <0>         0.0991
     32 H6         -2.9758    1.8716    3.9434 H         1 <0>         0.1580
     33 H7         -4.0006   -2.0747    2.6944 H         1 <0>         0.1586
     34 H8         -1.8414   -2.2982    1.5458 H         1 <0>         0.1604
     35 H9          2.1094    1.9315   -0.0077 H         1 <0>         0.1583
     36 H10         2.0890    4.3926    0.0069 H         1 <0>         0.1480
     37 H11        -2.1558    1.8742    0.0221 H         1 <0>         0.1556
     38 H12        -0.0110    7.9487    0.0468 H         1 <0>         0.1036
     39 H13         1.1764    6.9588   -0.8679 H         1 <0>         0.0848
     40 H14         1.1927    6.9484    0.9283 H         1 <0>         0.0847
@<TRIPOS>BOND
     1    1    2 1
     2    1   27 1
     3    1   28 1
     4    1   29 1
     5    2    3 1
     6    2   30 1
     7    2   31 1
     8    3    4 2
     9    3    5 1
    10    5   10 ar
    11    5    6 ar
    12    6    7 ar
    13    6   32 1
    14    7    8 ar
    15    7   26 1
    16    8    9 ar
    17    8   33 1
    18    9   10 ar
    19    9   34 1
    20   10   11 1
    21   11   12 1
    22   12   13 2
    23   12   14 2
    24   12   15 1
    25   15   20 ar
    26   15   16 ar
    27   16   17 ar
    28   16   35 1
    29   17   18 ar
    30   17   36 1
    31   18   24 1
    32   18   19 ar
    33   19   20 ar
    34   19   21 1
    35   20   37 1
    36   21   22 1
    37   22   23 2
    38   22   24 am
    39   24   25 1
    40   25   38 1
    41   25   39 1
    42   25   40 1
@<TRIPOS>MOLECULE
ZINC28506981
   55    59     0     0     0
SMALL
USER_CHARGES

@<TRIPOS>ATOM
      1 C1         -0.0167    1.3793    0.0096 C.ar      1 <0>        -0.0987
      2 C2          1.1684    2.0932    0.0021 C.ar      1 <0>        -0.1185
      3 C3          2.3774    1.4288   -0.0130 C.ar      1 <0>        -0.0919
      4 C4          2.4033    0.0336   -0.0208 C.ar      1 <0>        -0.0199
      5 C5          1.2044   -0.6806   -0.0131 C.ar      1 <0>        -0.0679
      6 C6          0.0021   -0.0041    0.0020 C.ar      1 <0>        -0.1209
      7 C7          3.6955   -0.6850   -0.0375 C.2       1 <0>         0.1609
      8 N1          3.9328   -1.9891   -0.0523 N.2       1 <0>        -0.4791
      9 C8          5.1581   -2.4586   -0.0660 C.2       1 <0>         0.0720
     10 C9          6.2126   -1.6003   -0.0651 C.2       1 <0>        -0.2033
     11 S1          5.3587   -0.0288   -0.0511 S.3       1 <0>         0.0126
     12 C10         5.3961   -3.9466   -0.0821 C.3       1 <0>         0.1261
     13 N2          5.3640   -4.4625    1.2929 N.3       1 <0>        -0.5294
     14 C11         6.4839   -3.9308    2.0810 C.3       1 <0>         0.0388
     15 C12         6.3143   -4.3442    3.5468 C.3       1 <0>         0.1200
     16 N3          6.1516   -5.8048    3.6045 N.am      1 <0>        -0.6123
     17 C13         5.1390   -6.4269    2.7379 C.3       1 <0>         0.1096
     18 C14         5.3548   -5.9315    1.3039 C.3       1 <0>         0.0425
     19 C15         6.9098   -6.5533    4.4298 C.2       1 <0>         0.5061
     20 O1          7.7398   -6.0236    5.1379 O.2       1 <0>        -0.5266
     21 C16         6.7263   -8.0485    4.4729 C.3       1 <0>         0.1137
     22 N4          7.6613   -8.6276    5.4408 N.am      1 <0>        -0.4182
     23 C17         7.2730   -8.7689    6.7254 C.2       1 <0>         0.5361
     24 O2          6.1607   -8.4208    7.0794 O.2       1 <0>        -0.5183
     25 C18         8.2165   -9.3506    7.6881 C.ar      1 <0>        -0.1217
     26 C19         7.8868   -9.5282    9.0311 C.ar      1 <0>        -0.0560
     27 C20         8.8140  -10.0801    9.8876 C.ar      1 <0>        -0.1108
     28 C21        10.0683  -10.4585    9.4264 C.ar      1 <0>        -0.0903
     29 C22        10.4132  -10.2937    8.1141 C.ar      1 <0>        -0.0934
     30 C23         9.4939   -9.7375    7.2225 C.ar      1 <0>        -0.0694
     31 C24         9.8123   -9.5399    5.8083 C.2       1 <0>         0.1193
     32 N5          8.9273   -9.0235    5.0087 N.2       1 <0>        -0.2318
     33 H1         -0.9605    1.9041    0.0260 H         1 <0>         0.1290
     34 H2          1.1469    3.1730    0.0078 H         1 <0>         0.1316
     35 H3          3.3018    1.9873   -0.0192 H         1 <0>         0.1263
     36 H4          1.2177   -1.7605   -0.0194 H         1 <0>         0.1365
     37 H5         -0.9265   -0.5556    0.0083 H         1 <0>         0.1317
     38 H6          7.2721   -1.8094   -0.0745 H         1 <0>         0.1966
     39 H7          4.6181   -4.4326   -0.6708 H         1 <0>         0.0952
     40 H8          6.3701   -4.1540   -0.5254 H         1 <0>         0.0536
     41 H9          7.4219   -4.3312    1.6963 H         1 <0>         0.0415
     42 H10         6.4954   -2.8432    2.0088 H         1 <0>         0.0884
     43 H11         7.1977   -4.0515    4.1143 H         1 <0>         0.0957
     44 H12         5.4310   -3.8606    3.9638 H         1 <0>         0.0763
     45 H13         5.2453   -7.5112    2.7706 H         1 <0>         0.0892
     46 H14         4.1427   -6.1435    3.0771 H         1 <0>         0.0849
     47 H15         4.5475   -6.2949    0.6682 H         1 <0>         0.0942
     48 H16         6.3085   -6.3040    0.9301 H         1 <0>         0.0431
     49 H17         5.7040   -8.2806    4.7715 H         1 <0>         0.1274
     50 H18         6.9202   -8.4669    3.4853 H         1 <0>         0.1236
     51 H19         6.9136   -9.2356    9.3966 H         1 <0>         0.1423
     52 H20         8.5630  -10.2196   10.9287 H         1 <0>         0.1368
     53 H21        10.7812  -10.8887   10.1144 H         1 <0>         0.1357
     54 H22        11.3919  -10.5923    7.7685 H         1 <0>         0.1419
     55 H23        10.7814   -9.8273    5.4278 H         1 <0>         0.1993
@<TRIPOS>BOND
     1    1    6 ar
     2    1    2 ar
     3    1   33 1
     4    2    3 ar
     5    2   34 1
     6    3    4 ar
     7    3   35 1
     8    4    5 ar
     9    4    7 1
    10    5    6 ar
    11    5   36 1
    12    6   37 1
    13    7   11 1
    14    7    8 2
    15    8    9 1
    16    9   10 2
    17    9   12 1
    18   10   11 1
    19   10   38 1
    20   12   13 1
    21   12   39 1
    22   12   40 1
    23   13   18 1
    24   13   14 1
    25   14   15 1
    26   14   41 1
    27   14   42 1
    28   15   16 1
    29   15   43 1
    30   15   44 1
    31   16   17 1
    32   16   19 am
    33   17   18 1
    34   17   45 1
    35   17   46 1
    36   18   47 1
    37   18   48 1
    38   19   20 2
    39   19   21 1
    40   21   22 1
    41   21   49 1
    42   21   50 1
    43   22   32 1
    44   22   23 am
    45   23   24 2
    46   23   25 1
    47   25   30 ar
    48   25   26 ar
    49   26   27 ar
    50   26   51 1
    51   27   28 ar
    52   27   52 1
    53   28   29 ar
    54   28   53 1
    55   29   30 ar
    56   29   54 1
    57   30   31 1
    58   31   32 2
    59   31   55 1
@<TRIPOS>MOLECULE
ZINC14045621
   56    58     0     0     0
SMALL
USER_CHARGES

@<TRIPOS>ATOM
      1 C1         -0.0187    1.5258    0.0104 C.3       1 <0>        -0.1555
      2 C2          0.0021   -0.0041    0.0020 C.3       1 <0>        -0.1158
      3 C3          0.7182   -0.4975   -1.2568 C.3       1 <0>        -0.0626
      4 H1          0.2444   -0.0644   -2.1377 H         1 <0>         0.0832
      5 C4          2.1873   -0.0730   -1.2073 C.3       1 <0>        -0.1481
      6 C5          0.6316   -2.0003   -1.3275 C.ar      1 <0>        -0.0169
      7 C6          1.1632   -2.7719   -0.3111 C.ar      1 <0>        -0.1347
      8 C7          1.0838   -4.1504   -0.3760 C.ar      1 <0>        -0.0167
      9 C8          0.4724   -4.7574   -1.4570 C.ar      1 <0>        -0.6829
     10 C9         -0.0599   -3.9858   -2.4730 C.ar      1 <0>        -0.0168
     11 C10         0.0157   -2.6072   -2.4060 C.ar      1 <0>        -0.1381
     12 S1          0.3723   -6.5146   -1.5403 S.o2      1 <0>         2.6892
     13 O1          0.2369   -6.8490   -2.9147 O.2       1 <0>        -0.9516
     14 O2          1.4271   -7.0202   -0.7335 O.2       1 <0>        -0.9505
     15 N1         -1.0423   -6.9598   -0.8033 N.pl3     1 <0>        -0.9964
     16 C11        -1.0780   -7.2419    0.6386 C.3       1 <0>         0.1056
     17 C12        -2.1474   -6.3531    1.2855 C.3       1 <0>         0.0965
     18 N2         -3.3897   -6.4727    0.5095 N.am      1 <0>        -0.6009
     19 C13        -3.3541   -6.1906   -0.9324 C.3       1 <0>         0.0946
     20 C14        -2.2858   -7.0740   -1.5783 C.3       1 <0>         0.1053
     21 C15        -4.5410   -6.8351    1.1093 C.2       1 <0>         0.6037
     22 O3         -4.5581   -7.0664    2.3031 O.2       1 <0>        -0.5205
     23 C16        -5.7786   -6.9509    0.3188 C.2       1 <0>        -0.2606
     24 C17        -6.2513   -8.1112   -0.3353 C.2       1 <0>         0.1212
     25 N3         -7.3751   -7.8126   -0.9257 N.2       1 <0>        -0.2667
     26 N4         -7.6730   -6.4672   -0.6826 N.pl3     1 <0>        -0.3493
     27 C18        -6.6990   -5.9465    0.0824 C.2       1 <0>         0.1580
     28 Cl1        -6.6102   -4.3129    0.6630 Cl        1 <0>         0.0148
     29 C19        -8.8516   -5.7492   -1.1739 C.3       1 <0>         0.0896
     30 C20        -5.5747   -9.4577   -0.3486 C.3       1 <0>        -0.0795
     31 H2          1.0039    1.9031    0.0027 H         1 <0>         0.0590
     32 H3         -0.5459    1.8868   -0.8726 H         1 <0>         0.0550
     33 H4         -0.5289    1.8773    0.9072 H         1 <0>         0.0567
     34 H5          0.5293   -0.3651    0.8851 H         1 <0>         0.0660
     35 H6         -1.0205   -0.3814    0.0098 H         1 <0>         0.0634
     36 H7          2.2499    1.0140   -1.1561 H         1 <0>         0.0660
     37 H8          2.6611   -0.5061   -0.3263 H         1 <0>         0.0592
     38 H9          2.6975   -0.4246   -2.1040 H         1 <0>         0.0577
     39 H10         1.6409   -2.2976    0.5335 H         1 <0>         0.1322
     40 H11         1.4998   -4.7532    0.4178 H         1 <0>         0.1393
     41 H12        -0.5373   -4.4601   -3.3177 H         1 <0>         0.1386
     42 H13        -0.4036   -2.0043   -3.1980 H         1 <0>         0.1318
     43 H14        -1.3272   -8.2907    0.8001 H         1 <0>         0.0858
     44 H15        -0.1050   -7.0227    1.0784 H         1 <0>         0.1058
     45 H16        -2.3235   -6.6798    2.3104 H         1 <0>         0.1098
     46 H17        -1.8123   -5.3160    1.2819 H         1 <0>         0.0758
     47 H18        -4.3270   -6.4099   -1.3722 H         1 <0>         0.0969
     48 H19        -3.1048   -5.1419   -1.0939 H         1 <0>         0.0766
     49 H20        -2.1103   -6.7438   -2.6022 H         1 <0>         0.1050
     50 H21        -2.6230   -8.1105   -1.5783 H         1 <0>         0.0852
     51 H22        -9.6600   -5.8382   -0.4482 H         1 <0>         0.0866
     52 H23        -8.6037   -4.6971   -1.3145 H         1 <0>         0.0935
     53 H24        -9.1681   -6.1781   -2.1247 H         1 <0>         0.1030
     54 H25        -5.9275  -10.0500    0.4957 H         1 <0>         0.0882
     55 H26        -5.8115   -9.9741   -1.2789 H         1 <0>         0.0850
     56 H27        -4.4958   -9.3230   -0.2724 H         1 <0>         0.0799
@<TRIPOS>BOND
     1    1    2 1
     2    1   31 1
     3    1   32 1
     4    1   33 1
     5    2    3 1
     6    2   34 1
     7    2   35 1
     8    3    4 1
     9    3    5 1
    10    3    6 1
    11    5   36 1
    12    5   37 1
    13    5   38 1
    14    6   11 ar
    15    6    7 ar
    16    7    8 ar
    17    7   39 1
    18    8    9 ar
    19    8   40 1
    20    9   10 ar
    21    9   12 1
    22   10   11 ar
    23   10   41 1
    24   11   42 1
    25   12   13 2
    26   12   14 2
    27   12   15 1
    28   15   20 1
    29   15   16 1
    30   16   17 1
    31   16   43 1
    32   16   44 1
    33   17   18 1
    34   17   45 1
    35   17   46 1
    36   18   19 1
    37   18   21 am
    38   19   20 1
    39   19   47 1
    40   19   48 1
    41   20   49 1
    42   20   50 1
    43   21   22 2
    44   21   23 1
    45   23   27 2
    46   23   24 1
    47   24   25 2
    48   24   30 1
    49   25   26 1
    50   26   27 1
    51   26   29 1
    52   27   28 1
    53   29   51 1
    54   29   52 1
    55   29   53 1
    56   30   54 1
    57   30   55 1
    58   30   56 1
@<TRIPOS>MOLECULE
ZINC15087845
   49    52     0     0     0
SMALL
USER_CHARGES

@<TRIPOS>ATOM
      1 C1         -0.0187    1.5258    0.0104 C.3       1 <0>        -0.1529
      2 C2          0.0021   -0.0041    0.0020 C.3       1 <0>         0.0611
      3 O1         -1.3386   -0.4987    0.0122 O.3       1 <0>        -0.3463
      4 C3         -1.4964   -1.8317    0.0065 C.2       1 <0>         0.4509
      5 O2         -0.5283   -2.5546   -0.0066 O.2       1 <0>        -0.4871
      6 C4         -2.8809   -2.4266    0.0165 C.3       1 <0>         0.1005
      7 N1         -2.7844   -3.8884    0.0078 N.am      1 <0>        -0.5172
      8 C5         -2.7453   -4.5677   -1.1891 C.2       1 <0>         0.0881
      9 C6         -2.6476   -5.9052   -1.0782 C.2       1 <0>        -0.1778
     10 S1         -2.6336   -6.1704    0.6770 S.3       1 <0>         0.1002
     11 C7         -2.7285   -4.5651    1.1693 C.2       1 <0>         0.4772
     12 O3         -2.7444   -4.1219    2.3042 O.2       1 <0>        -0.4508
     13 C8         -2.5517   -6.9229   -2.1564 C.3       1 <0>         0.0446
     14 C9         -2.8210   -6.4321   -3.5279 C.3       1 <0>        -0.1191
     15 H1         -2.3224   -7.1389   -4.1912 H         1 <0>         0.1423
     16 C10        -2.2594   -5.0628   -3.9318 C.3       1 <0>        -0.1056
     17 H2         -1.1811   -5.0645   -4.0909 H         1 <0>         0.1719
     18 S2         -2.8359   -3.7794   -2.7754 S.3       1 <0>         0.0010
     19 C11        -3.0769   -4.8496   -5.2182 C.2       1 <0>         0.5492
     20 O4         -2.7467   -4.1880   -6.1789 O.2       1 <0>        -0.4269
     21 N2         -4.2286   -5.5359   -5.0773 N.am      1 <0>        -0.5172
     22 C12        -4.2321   -6.3793   -4.0235 C.2       1 <0>         0.5487
     23 O5         -5.1860   -6.9788   -3.5761 O.2       1 <0>        -0.4284
     24 C13        -5.3245   -5.3775   -5.9387 C.ar      1 <0>         0.1044
     25 C14        -6.4833   -6.1129   -5.7312 C.ar      1 <0>        -0.1064
     26 C15        -7.5613   -5.9557   -6.5802 C.ar      1 <0>        -0.1315
     27 C16        -7.4865   -5.0651   -7.6380 C.ar      1 <0>         0.0973
     28 C17        -6.3312   -4.3306   -7.8465 C.ar      1 <0>        -0.1313
     29 C18        -5.2534   -4.4810   -6.9961 C.ar      1 <0>        -0.1090
     30 F1         -8.5417   -4.9130   -8.4677 F         1 <0>        -0.1340
     31 C19        -3.5445   -8.0448   -1.8457 C.3       1 <0>        -0.1535
     32 C20        -1.1426   -7.5185   -2.1289 C.3       1 <0>        -0.1479
     33 H3          1.0039    1.9031    0.0027 H         1 <0>         0.0827
     34 H4         -0.5459    1.8868   -0.8726 H         1 <0>         0.0687
     35 H5         -0.5289    1.8773    0.9072 H         1 <0>         0.0684
     36 H6          0.5123   -0.3556   -0.8948 H         1 <0>         0.0709
     37 H7          0.5293   -0.3651    0.8851 H         1 <0>         0.0698
     38 H8         -3.4091   -2.1027    0.9134 H         1 <0>         0.1451
     39 H9         -3.4261   -2.0931   -0.8665 H         1 <0>         0.1318
     40 H10        -6.5419   -6.8079   -4.9066 H         1 <0>         0.1650
     41 H11        -8.4629   -6.5280   -6.4193 H         1 <0>         0.1465
     42 H12        -6.2747   -3.6364   -8.6719 H         1 <0>         0.1462
     43 H13        -4.3541   -3.9047   -7.1563 H         1 <0>         0.1623
     44 H14        -4.5540   -7.6359   -1.8057 H         1 <0>         0.0892
     45 H15        -3.4906   -8.8041   -2.6259 H         1 <0>         0.0711
     46 H16        -3.2960   -8.4938   -0.8840 H         1 <0>         0.0697
     47 H17        -0.9632   -7.9826   -1.1591 H         1 <0>         0.0774
     48 H18        -1.0501   -8.2693   -2.9137 H         1 <0>         0.0751
     49 H19        -0.4107   -6.7279   -2.2943 H         1 <0>         0.0655
@<TRIPOS>BOND
     1    1    2 1
     2    1   33 1
     3    1   34 1
     4    1   35 1
     5    2    3 1
     6    2   36 1
     7    2   37 1
     8    3    4 1
     9    4    5 2
    10    4    6 1
    11    6    7 1
    12    6   38 1
    13    6   39 1
    14    7   11 am
    15    7    8 1
    16    8   18 1
    17    8    9 2
    18    9   10 1
    19    9   13 1
    20   10   11 1
    21   11   12 2
    22   13   14 1
    23   13   31 1
    24   13   32 1
    25   14   15 1
    26   14   22 1
    27   14   16 1
    28   16   17 1
    29   16   18 1
    30   16   19 1
    31   19   20 2
    32   19   21 am
    33   21   22 am
    34   21   24 1
    35   22   23 2
    36   24   29 ar
    37   24   25 ar
    38   25   26 ar
    39   25   40 1
    40   26   27 ar
    41   26   41 1
    42   27   28 ar
    43   27   30 1
    44   28   29 ar
    45   28   42 1
    46   29   43 1
    47   31   44 1
    48   31   45 1
    49   31   46 1
    50   32   47 1
    51   32   48 1
    52   32   49 1
@<TRIPOS>MOLECULE
ZINC13406516
   39    40     0     0     0
SMALL
USER_CHARGES
methyl (2R,3S,4S)-2-cyano-1,2-dimethyl-6-oxo-4-phenyl-piperidine-3-carboxylate
@<TRIPOS>ATOM
      1 C1          1.5304   -0.7942   -1.2039 C.3       1 <0>        -0.1628
      2 C2          1.6210    0.7325   -1.2482 C.3       1 <0>         0.2940
      3 C3          1.4998    1.2874    0.1716 C.3       1 <0>        -0.0843
      4 H1          2.1946    0.7670    0.8308 H         1 <0>         0.1388
      5 C4          0.0635    1.0697    0.6628 C.3       1 <0>        -0.0363
      6 H2         -0.2143    0.0238    0.5326 H         1 <0>         0.1185
      7 C5         -0.8702    1.9576   -0.1634 C.3       1 <0>        -0.1368
      8 C6         -0.5768    1.7856   -1.6262 C.2       1 <0>         0.5392
      9 O1         -1.4128    2.1496   -2.4260 O.2       1 <0>        -0.5331
     10 N1          0.5538    1.2542   -2.0927 N.am      1 <0>        -0.5921
     11 C7          0.7342    1.1902   -3.5452 C.3       1 <0>         0.0754
     12 C8         -0.0367    1.4437    2.1193 C.ar      1 <0>        -0.0936
     13 C9          0.0628    2.7685    2.5011 C.ar      1 <0>        -0.1026
     14 C10        -0.0331    3.1119    3.8367 C.ar      1 <0>        -0.1128
     15 C11        -0.2202    2.1297    4.7912 C.ar      1 <0>        -0.1119
     16 C12        -0.3145    0.8044    4.4098 C.ar      1 <0>        -0.1173
     17 C13        -0.2225    0.4613    3.0739 C.ar      1 <0>        -0.1025
     18 C14         1.8146    2.7611    0.1671 C.2       1 <0>         0.4603
     19 O2          1.4552    3.4529   -0.7561 O.2       1 <0>        -0.4863
     20 O3          2.4944    3.3053    1.1886 O.3       1 <0>        -0.3454
     21 C15         2.7621    4.7307    1.1173 C.3       1 <0>         0.0326
     22 C16         2.9231    1.1222   -1.8133 C.1       1 <0>         0.1877
     23 N2          3.9280    1.4230   -2.2495 N.1       1 <0>        -0.3815
     24 H3          0.5715   -1.0890   -0.7776 H         1 <0>         0.0906
     25 H4          1.6165   -1.1927   -2.2148 H         1 <0>         0.0831
     26 H5          2.3385   -1.1884   -0.5878 H         1 <0>         0.0876
     27 H6         -1.9049    1.6770    0.0335 H         1 <0>         0.1172
     28 H7         -0.7197    3.0003    0.1162 H         1 <0>         0.1067
     29 H8          0.3367    0.2468   -3.9195 H         1 <0>         0.0672
     30 H9          0.2042    2.0193   -4.0140 H         1 <0>         0.0883
     31 H10         1.7959    1.2569   -3.7827 H         1 <0>         0.0638
     32 H11         0.2124    3.5356    1.7557 H         1 <0>         0.1121
     33 H12         0.0409    4.1474    4.1346 H         1 <0>         0.1228
     34 H13        -0.2925    2.3978    5.8349 H         1 <0>         0.1237
     35 H14        -0.4604    0.0369    5.1556 H         1 <0>         0.1256
     36 H15        -0.2962   -0.5742    2.7760 H         1 <0>         0.1274
     37 H16         3.3167    5.0409    2.0029 H         1 <0>         0.1065
     38 H17         3.3514    4.9455    0.2258 H         1 <0>         0.0643
     39 H18         1.8193    5.2755    1.0697 H         1 <0>         0.0658
@<TRIPOS>BOND
     1    1    2 1
     2    1   24 1
     3    1   25 1
     4    1   26 1
     5    2   10 1
     6    2    3 1
     7    2   22 1
     8    3    4 1
     9    3    5 1
    10    3   18 1
    11    5    6 1
    12    5    7 1
    13    5   12 1
    14    7    8 1
    15    7   27 1
    16    7   28 1
    17    8    9 2
    18    8   10 am
    19   10   11 1
    20   11   29 1
    21   11   30 1
    22   11   31 1
    23   12   17 ar
    24   12   13 ar
    25   13   14 ar
    26   13   32 1
    27   14   15 ar
    28   14   33 1
    29   15   16 ar
    30   15   34 1
    31   16   17 ar
    32   16   35 1
    33   17   36 1
    34   18   19 2
    35   18   20 1
    36   20   21 1
    37   21   37 1
    38   21   38 1
    39   21   39 1
    40   22   23 3
@<TRIPOS>MOLECULE
ZINC37327359
   32    33     0     0     0
SMALL
USER_CHARGES

@<TRIPOS>ATOM
      1 C1          6.9923    3.7413   -2.8183 C.ar      1 <0>        -0.1841
      2 C2          5.9950    3.0546   -2.1516 C.ar      1 <0>         0.0498
      3 C3          5.5400    3.5098   -0.9288 C.ar      1 <0>        -0.7193
      4 C4          6.0824    4.6551   -0.3701 C.ar      1 <0>         0.2254
      5 C5          7.0810    5.3434   -1.0368 C.ar      1 <0>        -0.2125
      6 C6          7.5365    4.8862   -2.2615 C.ar      1 <0>         0.1867
      7 F1          8.5115    5.5569   -2.9132 F         1 <0>        -0.1197
      8 F2          5.6367    5.1004    0.8250 F         1 <0>        -0.1135
      9 S1          4.2686    2.6331   -0.0803 S.o2      1 <0>         2.7024
     10 O1          3.3026    3.5983    0.3129 O.2       1 <0>        -0.9451
     11 O2          3.9397    1.5116   -0.8885 O.2       1 <0>        -0.9424
     12 N1          4.9332    2.0338    1.3131 N.pl3     1 <0>        -0.9960
     13 C7          4.7689    2.7462    2.5875 C.3       1 <0>         0.1173
     14 C8          6.1515    2.9758    3.2059 C.3       1 <0>        -0.1390
     15 C9          6.8818    1.6361    3.3243 C.3       1 <0>        -0.1172
     16 C10         7.0702    1.0310    1.9313 C.3       1 <0>        -0.1293
     17 C11         5.6932    0.7765    1.2995 C.3       1 <0>         0.3801
     18 H1          5.1586    0.0201    1.8742 H         1 <0>         0.0867
     19 N2          5.8616    0.3193   -0.0822 N.2       1 <0>        -0.5791
     20 C12         5.5039   -0.8335   -0.4071 C.1       1 <0>         0.6699
     21 O3          5.1582   -1.9476   -0.7210 O.2       1 <0>        -0.3508
     22 H2          7.3503    3.3821   -3.7718 H         1 <0>         0.1542
     23 H3          5.5709    2.1618   -2.5868 H         1 <0>         0.1628
     24 H4          7.5043    6.2368   -0.6020 H         1 <0>         0.1587
     25 H5          4.2841    3.7061    2.4097 H         1 <0>         0.1042
     26 H6          4.1604    2.1472    3.2651 H         1 <0>         0.0829
     27 H7          6.7270    3.6490    2.5705 H         1 <0>         0.0706
     28 H8          6.0384    3.4173    4.1960 H         1 <0>         0.0842
     29 H9          7.8563    1.7934    3.7867 H         1 <0>         0.0763
     30 H10         6.2938    0.9551    3.9395 H         1 <0>         0.0703
     31 H11         7.6370    1.7225    1.3078 H         1 <0>         0.0832
     32 H12         7.6109    0.0883    2.0142 H         1 <0>         0.0822
@<TRIPOS>BOND
     1    1    6 ar
     2    1    2 ar
     3    1   22 1
     4    2    3 ar
     5    2   23 1
     6    3    4 ar
     7    3    9 1
     8    4    5 ar
     9    4    8 1
    10    5    6 ar
    11    5   24 1
    12    6    7 1
    13    9   10 2
    14    9   11 2
    15    9   12 1
    16   12   17 1
    17   12   13 1
    18   13   14 1
    19   13   25 1
    20   13   26 1
    21   14   15 1
    22   14   27 1
    23   14   28 1
    24   15   16 1
    25   15   29 1
    26   15   30 1
    27   16   17 1
    28   16   31 1
    29   16   32 1
    30   17   18 1
    31   17   19 1
    32   19   20 2
    33   20   21 2
@<TRIPOS>MOLECULE
ZINC47266332
   39    41     0     0     0
SMALL
USER_CHARGES

@<TRIPOS>ATOM
      1 C1         -0.3960    0.4010   -0.4124 C.ar      1 <0>        -0.0633
      2 C2          0.1321   -0.5759   -1.2382 C.ar      1 <0>        -0.1090
      3 C3          1.4612   -0.9426   -1.1243 C.ar      1 <0>        -0.0214
      4 C4          2.2696   -0.3354   -0.1856 C.ar      1 <0>        -0.6410
      5 C5          1.7435    0.6512    0.6505 C.ar      1 <0>         0.0738
      6 C6          0.4009    1.0162    0.5304 C.ar      1 <0>        -0.0878
      7 C7          2.5766    1.2854    1.6274 C.1       1 <0>         0.2136
      8 N1          3.2375    1.7885    2.4024 N.1       1 <0>        -0.3569
      9 S1          3.9619   -0.8044   -0.0418 S.o2      1 <0>         2.6799
     10 O1          4.1871   -1.8158   -1.0142 O.2       1 <0>        -0.9395
     11 O2          4.7155    0.3998   -0.0066 O.2       1 <0>        -0.9449
     12 N2          4.1470   -1.5221    1.4391 N.pl3     1 <0>        -0.9952
     13 C8          4.7001   -0.7812    2.5869 C.3       1 <0>         0.0792
     14 C9          5.8209   -1.6120    3.2193 C.3       1 <0>         0.0544
     15 O3          5.3551   -2.9417    3.4745 O.3       1 <0>        -0.3697
     16 C10         4.9623   -3.6430    2.2970 C.3       1 <0>         0.0839
     17 H1          5.7923   -3.6545    1.5905 H         1 <0>         0.0671
     18 C11         3.7611   -2.9209    1.6642 C.3       1 <0>         0.1241
     19 H2          2.9092   -2.9598    2.3430 H         1 <0>         0.0870
     20 C12         3.4063   -3.6070    0.3468 C.3       1 <0>        -0.1524
     21 C13         3.0118   -5.0590    0.6350 C.3       1 <0>        -0.1163
     22 C14         4.1719   -5.7917    1.3094 C.3       1 <0>        -0.1203
     23 C15         4.5497   -5.0783    2.6149 C.3       1 <0>        -0.1108
     24 H3         -1.4333    0.6854   -0.5094 H         1 <0>         0.1458
     25 H4         -0.4963   -1.0544   -1.9748 H         1 <0>         0.1449
     26 H5          1.8667   -1.7062   -1.7715 H         1 <0>         0.1556
     27 H6         -0.0124    1.7787    1.1740 H         1 <0>         0.1450
     28 H7          5.1009    0.1735    2.2464 H         1 <0>         0.1063
     29 H8          3.9145   -0.6079    3.3224 H         1 <0>         0.0780
     30 H9          6.6714   -1.6505    2.5387 H         1 <0>         0.0597
     31 H10         6.1294   -1.1500    4.1571 H         1 <0>         0.1113
     32 H11         2.5704   -3.0877   -0.1219 H         1 <0>         0.0695
     33 H12         4.2694   -3.5884   -0.3187 H         1 <0>         0.1142
     34 H13         2.1430   -5.0740    1.2931 H         1 <0>         0.0652
     35 H14         2.7633   -5.5591   -0.3011 H         1 <0>         0.0751
     36 H15         3.8740   -6.8172    1.5278 H         1 <0>         0.0746
     37 H16         5.0318   -5.8013    0.6397 H         1 <0>         0.0684
     38 H17         5.3805   -5.6004    3.0894 H         1 <0>         0.0776
     39 H18         3.6902   -5.0711    3.2852 H         1 <0>         0.0742
@<TRIPOS>BOND
     1    1    6 ar
     2    1    2 ar
     3    1   24 1
     4    2    3 ar
     5    2   25 1
     6    3    4 ar
     7    3   26 1
     8    4    5 ar
     9    4    9 1
    10    5    6 ar
    11    5    7 1
    12    6   27 1
    13    7    8 3
    14    9   10 2
    15    9   11 2
    16    9   12 1
    17   12   18 1
    18   12   13 1
    19   13   14 1
    20   13   28 1
    21   13   29 1
    22   14   15 1
    23   14   30 1
    24   14   31 1
    25   15   16 1
    26   16   17 1
    27   16   23 1
    28   16   18 1
    29   18   19 1
    30   18   20 1
    31   20   21 1
    32   20   32 1
    33   20   33 1
    34   21   22 1
    35   21   34 1
    36   21   35 1
    37   22   23 1
    38   22   36 1
    39   22   37 1
    40   23   38 1
    41   23   39 1
@<TRIPOS>MOLECULE
ZINC58378144
   34    36     0     0     0
SMALL
USER_CHARGES

@<TRIPOS>ATOM
      1 C1         -0.1263    1.4611    0.1786 C.3       1 <0>        -0.1514
      2 C2         -0.0727   -0.0637    0.0641 C.3       1 <0>         0.0701
      3 H1          0.5068   -0.3460   -0.8148 H         1 <0>         0.0871
      4 C3         -1.4965   -0.6242   -0.0528 C.3       1 <0>         0.0405
      5 H2         -2.0746   -0.3462    0.8285 H         1 <0>         0.1067
      6 O1         -1.4107   -2.0505   -0.1437 O.3       1 <0>        -0.2887
      7 C4         -0.5848   -2.6711    0.7425 C.ar      1 <0>         0.0475
      8 C5         -0.7197   -4.0345    0.9590 C.ar      1 <0>        -0.1106
      9 C6          0.1136   -4.6793    1.8532 C.ar      1 <0>        -0.1155
     10 C7          1.0840   -3.9677    2.5339 C.ar      1 <0>        -0.1139
     11 C8          1.2228   -2.6089    2.3239 C.ar      1 <0>        -0.1131
     12 C9          0.3883   -1.9552    1.4293 C.ar      1 <0>         0.0497
     13 O2          0.5322   -0.6150    1.2388 O.3       1 <0>        -0.3003
     14 C10        -2.1593   -0.0743   -1.2895 C.2       1 <0>         0.5103
     15 O3         -2.4632   -0.8215   -2.2001 O.2       1 <0>        -0.4940
     16 N1         -2.4113    1.2248   -1.3851 N.2       1 <0>        -0.5958
     17 C11        -3.6459    1.6461   -1.6682 C.2       1 <0>         0.3571
     18 N2         -4.7941    0.9196   -1.7256 N.pl3     1 <0>        -0.5284
     19 C12        -5.9567    1.5535   -2.0350 C.2       1 <0>         0.0620
     20 C13        -5.8952    2.8695   -2.2663 C.2       1 <0>        -0.2398
     21 S1         -4.1596    3.2050   -2.0330 S.3       1 <0>         0.2028
     22 C14        -4.7787   -0.5209   -1.4591 C.3       1 <0>         0.0581
     23 H3          0.8860    1.8543    0.2717 H         1 <0>         0.0715
     24 H4         -0.5967    1.8761   -0.7129 H         1 <0>         0.1141
     25 H5         -0.7065    1.7392    1.0584 H         1 <0>         0.0665
     26 H6         -1.4769   -4.5926    0.4284 H         1 <0>         0.1350
     27 H7          0.0067   -5.7409    2.0204 H         1 <0>         0.1340
     28 H8          1.7347   -4.4747    3.2311 H         1 <0>         0.1340
     29 H9          1.9817   -2.0554    2.8569 H         1 <0>         0.1362
     30 H10        -6.8918    1.0160   -2.0921 H         1 <0>         0.1878
     31 H11        -6.6912    3.5525   -2.5239 H         1 <0>         0.2127
     32 H12        -4.0451   -0.7390   -0.6830 H         1 <0>         0.0770
     33 H13        -5.7663   -0.8392   -1.1254 H         1 <0>         0.0899
     34 H14        -4.5132   -1.0562   -2.3707 H         1 <0>         0.1008
@<TRIPOS>BOND
     1    1    2 1
     2    1   23 1
     3    1   24 1
     4    1   25 1
     5    2    3 1
     6    2   13 1
     7    2    4 1
     8    4    5 1
     9    4    6 1
    10    4   14 1
    11    6    7 1
    12    7   12 ar
    13    7    8 ar
    14    8    9 ar
    15    8   26 1
    16    9   10 ar
    17    9   27 1
    18   10   11 ar
    19   10   28 1
    20   11   12 ar
    21   11   29 1
    22   12   13 1
    23   14   15 2
    24   14   16 1
    25   16   17 2
    26   17   21 1
    27   17   18 1
    28   18   19 1
    29   18   22 1
    30   19   20 2
    31   19   30 1
    32   20   21 1
    33   20   31 1
    34   22   32 1
    35   22   33 1
    36   22   34 1
@<TRIPOS>MOLECULE
ZINC66901235
   43    45     0     0     0
SMALL
USER_CHARGES

@<TRIPOS>ATOM
      1 C1         -0.1566    1.6328   -0.2968 C.3       1 <0>        -0.1678
      2 C2         -0.1513    0.1032   -0.2668 C.3       1 <0>         0.1187
      3 N1          0.5997   -0.4052   -1.4174 N.pl3     1 <0>        -0.3565
      4 C3          1.6430   -1.2597   -1.3698 C.2       1 <0>         0.1769
      5 C4          2.0540   -1.4802   -2.6400 C.2       1 <0>        -0.8178
      6 C5          1.2336   -0.7349   -3.4932 C.2       1 <0>         0.1295
      7 N2          0.3577   -0.0948   -2.7619 N.2       1 <0>        -0.2857
      8 S1          3.3875   -2.5214   -3.1323 S.o2      1 <0>         2.7203
      9 O1          3.8236   -2.0507   -4.4001 O.2       1 <0>        -0.9510
     10 O2          4.2598   -2.6198   -2.0148 O.2       1 <0>        -0.9663
     11 N3          2.7618   -4.0347   -3.3789 N.pl3     1 <0>        -0.9943
     12 C6          2.8634   -5.0727   -2.3415 C.3       1 <0>         0.1167
     13 C7          3.4960   -6.3280   -2.9484 C.3       1 <0>        -0.1322
     14 C8          2.7121   -6.7504   -4.1946 C.3       1 <0>        -0.1136
     15 C9          2.7613   -5.6230   -5.2246 C.3       1 <0>        -0.0952
     16 H1          3.8004   -5.3962   -5.4634 H         1 <0>         0.0783
     17 C10         2.0857   -4.3749   -4.6354 C.3       1 <0>         0.1619
     18 H2          1.0347   -4.5858   -4.4377 H         1 <0>         0.0736
     19 C11         2.1987   -3.2246   -5.6346 C.3       1 <0>        -0.1605
     20 C12         1.4769   -3.6142   -6.9279 C.3       1 <0>        -0.1141
     21 C13         2.1091   -4.8764   -7.5156 C.3       1 <0>        -0.1231
     22 C14         2.0236   -6.0248   -6.5010 C.3       1 <0>        -0.1128
     23 H3          0.8686    2.0007   -0.2528 H         1 <0>         0.0631
     24 H4         -0.6267    1.9766   -1.2181 H         1 <0>         0.0731
     25 H5         -0.7153    2.0111    0.5593 H         1 <0>         0.0810
     26 H6          0.3189   -0.2406    0.6545 H         1 <0>         0.1029
     27 H7         -1.1764   -0.2647   -0.3108 H         1 <0>         0.0934
     28 H8          2.0732   -1.6903   -0.4776 H         1 <0>         0.1909
     29 H9          1.3074   -0.6980   -4.5701 H         1 <0>         0.1979
     30 H10         3.4855   -4.7103   -1.5231 H         1 <0>         0.0955
     31 H11         1.8682   -5.3113   -1.9661 H         1 <0>         0.0675
     32 H12         4.5291   -6.1163   -3.2242 H         1 <0>         0.0689
     33 H13         3.4751   -7.1350   -2.2159 H         1 <0>         0.0767
     34 H14         3.1584   -7.6502   -4.6180 H         1 <0>         0.0672
     35 H15         1.6757   -6.9502   -3.9226 H         1 <0>         0.0640
     36 H16         1.7378   -2.3304   -5.2149 H         1 <0>         0.0643
     37 H17         3.2495   -3.0289   -5.8482 H         1 <0>         0.1199
     38 H18         0.4250   -3.8023   -6.7131 H         1 <0>         0.0601
     39 H19         1.5583   -2.7996   -7.6476 H         1 <0>         0.0697
     40 H20         1.5809   -5.1553   -8.4273 H         1 <0>         0.0640
     41 H21         3.1557   -4.6818   -7.7499 H         1 <0>         0.0649
     42 H22         2.4809   -6.9214   -6.9196 H         1 <0>         0.0670
     43 H23         0.9766   -6.2215   -6.2705 H         1 <0>         0.0631
@<TRIPOS>BOND
     1    1    2 1
     2    1   23 1
     3    1   24 1
     4    1   25 1
     5    2    3 1
     6    2   26 1
     7    2   27 1
     8    3    7 1
     9    3    4 1
    10    4    5 2
    11    4   28 1
    12    5    6 1
    13    5    8 1
    14    6    7 2
    15    6   29 1
    16    8    9 2
    17    8   10 2
    18    8   11 1
    19   11   17 1
    20   11   12 1
    21   12   13 1
    22   12   30 1
    23   12   31 1
    24   13   14 1
    25   13   32 1
    26   13   33 1
    27   14   15 1
    28   14   34 1
    29   14   35 1
    30   15   16 1
    31   15   22 1
    32   15   17 1
    33   17   18 1
    34   17   19 1
    35   19   20 1
    36   19   36 1
    37   19   37 1
    38   20   21 1
    39   20   38 1
    40   20   39 1
    41   21   22 1
    42   21   40 1
    43   21   41 1
    44   22   42 1
    45   22   43 1
@<TRIPOS>MOLECULE
ZINC20467587
   34    35     0     0     0
SMALL
USER_CHARGES
5-bromo-3-[[(2R)-2-methyl-1-piperidyl]sulfonyl]pyridin-2-amine
@<TRIPOS>ATOM
      1 C1          1.1542   -2.0481    0.2979 C.3       1 <0>        -0.2088
      2 C2          0.8031   -0.5989    0.6405 C.3       1 <0>         0.1562
      3 H1         -0.0134   -0.5727    1.3771 H         1 <0>         0.0766
      4 C3          0.4158    0.1515   -0.6377 C.3       1 <0>        -0.1278
      5 C4          0.1977    1.6304   -0.3099 C.3       1 <0>        -0.1207
      6 C5          1.4975    2.2325    0.2286 C.3       1 <0>        -0.1313
      7 C6          1.8971    1.5056    1.5166 C.3       1 <0>         0.1012
      8 N1          1.9677    0.0637    1.2434 N.pl3     1 <0>        -0.9970
      9 S1          3.3336   -0.7984    1.6087 S.o2      1 <0>         2.6973
     10 O1          3.5119   -1.7404    0.5598 O.2       1 <0>        -0.9448
     11 O2          4.3317    0.1509    1.9580 O.2       1 <0>        -0.9594
     12 C7          2.9895   -1.7267    3.0662 C.ar      1 <0>        -0.8005
     13 C8          2.9806   -3.1097    3.0307 C.ar      1 <0>         0.0967
     14 C9          2.7049   -3.8010    4.2036 C.ar      1 <0>        -0.2338
     15 C10         2.4496   -3.0928    5.3619 C.ar      1 <0>         0.2432
     16 N2          2.4650   -1.7734    5.3654 N.ar      1 <0>        -0.5435
     17 C11         2.7288   -1.0791    4.2692 C.ar      1 <0>         0.5105
     18 N3          2.7398    0.3105    4.3199 N.pl3     1 <0>        -0.8586
     19 Br1         2.6798   -5.6918    4.2147 Br        1 <0>        -0.0264
     20 H2          0.2800   -2.5404   -0.1531 H         1 <0>         0.0808
     21 H3          1.4431   -2.5821    1.2152 H         1 <0>         0.0548
     22 H4          1.9920   -2.0637   -0.4148 H         1 <0>         0.1168
     23 H5          1.2226    0.0538   -1.3790 H         1 <0>         0.0742
     24 H6         -0.5117   -0.2756   -1.0469 H         1 <0>         0.0786
     25 H7         -0.1044    2.1673   -1.2212 H         1 <0>         0.0698
     26 H8         -0.5919    1.7250    0.4501 H         1 <0>         0.0656
     27 H9          2.2936    2.1167   -0.5216 H         1 <0>         0.0719
     28 H10         1.3463    3.3012    0.4408 H         1 <0>         0.0808
     29 H11         2.8788    1.8698    1.8537 H         1 <0>         0.0973
     30 H12         1.1460    1.7012    2.2961 H         1 <0>         0.0767
     31 H13         3.1838   -3.6398    2.1120 H         1 <0>         0.1617
     32 H14         2.2344   -3.6259    6.2762 H         1 <0>         0.1742
     33 H15         2.5343    0.8279    5.2686 H         1 <0>         0.4406
     34 H16         2.9540    0.8923    3.4113 H         1 <0>         0.4270
@<TRIPOS>BOND
     1    1    2 1
     2    1   20 1
     3    1   21 1
     4    1   22 1
     5    2    3 1
     6    2    8 1
     7    2    4 1
     8    4    5 1
     9    4   23 1
    10    4   24 1
    11    5    6 1
    12    5   25 1
    13    5   26 1
    14    6    7 1
    15    6   27 1
    16    6   28 1
    17    7    8 1
    18    7   29 1
    19    7   30 1
    20    8    9 1
    21    9   10 2
    22    9   11 2
    23    9   12 1
    24   12   17 ar
    25   12   13 ar
    26   13   14 ar
    27   13   31 1
    28   14   15 ar
    29   14   19 1
    30   15   16 ar
    31   15   32 1
    32   16   17 ar
    33   17   18 1
    34   18   33 1
    35   18   34 1
@<TRIPOS>MOLECULE
ZINC01422115
   35    38     0     0     0
SMALL
USER_CHARGES

@<TRIPOS>ATOM
      1 C1         -0.0164    1.3592    0.0095 C.ar      1 <0>        -0.1231
      2 C2          1.1568    2.1014    0.0023 C.ar      1 <0>        -0.0619
      3 C3          2.3800    1.4565   -0.0130 C.ar      1 <0>        -0.0882
      4 C4          2.4056    0.0783   -0.0208 C.ar      1 <0>        -0.0324
      5 C5          1.2303   -0.6916   -0.0135 C.ar      1 <0>        -0.0966
      6 C6          0.0021   -0.0041    0.0020 C.ar      1 <0>        -0.0537
      7 C7          1.2215   -2.1611   -0.0208 C.2       1 <0>         0.2325
      8 C8          2.2759   -3.0059   -0.0369 C.2       1 <0>        -0.2508
      9 C9          3.6408   -2.6048   -0.0453 C.2       1 <0>         0.4252
     10 O1          4.5568   -3.4107   -0.0551 O.2       1 <0>        -0.3884
     11 S1          3.9212   -0.8449   -0.0401 S.3       1 <0>        -0.0723
     12 C10         2.0617   -4.5070   -0.0515 C.3       1 <0>         0.0939
     13 H1          2.8132   -4.9719   -0.6896 H         1 <0>         0.1126
     14 C11         0.6938   -4.8372   -0.5742 C.2       1 <0>        -0.2624
     15 C12        -0.2866   -3.9000   -0.5248 C.2       1 <0>         0.4344
     16 O2         -0.0428   -2.6902   -0.0059 O.3       1 <0>        -0.2501
     17 N1         -1.5364   -4.1944   -1.0100 N.pl3     1 <0>        -0.8240
     18 C13         0.4251   -6.1327   -1.1219 C.1       1 <0>         0.2699
     19 N2          0.2119   -7.1605   -1.5564 N.1       1 <0>        -0.4292
     20 C14         2.1978   -5.0432    1.3503 C.ar      1 <0>        -0.0345
     21 C15         1.3559   -4.6070    2.3619 C.ar      1 <0>        -0.1615
     22 C16         1.5105   -5.1212    3.6353 C.ar      1 <0>         0.0998
     23 N3          2.4448   -6.0155    3.8928 N.ar      1 <0>        -0.4830
     24 C17         3.2629   -6.4531    2.9558 C.ar      1 <0>         0.1022
     25 C18         3.1640   -5.9888    1.6578 C.ar      1 <0>        -0.1535
     26 H2         -0.9659    1.8737    0.0259 H         1 <0>         0.1382
     27 H3          1.1142    3.1805    0.0083 H         1 <0>         0.1448
     28 H4          3.2995    2.0230   -0.0191 H         1 <0>         0.1505
     29 H5         -0.9259   -0.5566    0.0080 H         1 <0>         0.1418
     30 H6         -1.7165   -5.0699   -1.3867 H         1 <0>         0.4287
     31 H7         -2.2394   -3.5269   -0.9763 H         1 <0>         0.4133
     32 H8          0.5893   -3.8743    2.1574 H         1 <0>         0.1261
     33 H9          0.8587   -4.7866    4.4288 H         1 <0>         0.1556
     34 H10         4.0163   -7.1859    3.2046 H         1 <0>         0.1582
     35 H11         3.8338   -6.3548    0.8936 H         1 <0>         0.1375
@<TRIPOS>BOND
     1    1    6 ar
     2    1    2 ar
     3    1   26 1
     4    2    3 ar
     5    2   27 1
     6    3    4 ar
     7    3   28 1
     8    4   11 1
     9    4    5 ar
    10    5    6 ar
    11    5    7 1
    12    6   29 1
    13    7   16 1
    14    7    8 2
    15    8    9 1
    16    8   12 1
    17    9   10 2
    18    9   11 1
    19   12   13 1
    20   12   14 1
    21   12   20 1
    22   14   15 2
    23   14   18 1
    24   15   16 1
    25   15   17 1
    26   17   30 1
    27   17   31 1
    28   18   19 3
    29   20   25 ar
    30   20   21 ar
    31   21   22 ar
    32   21   32 1
    33   22   23 ar
    34   22   33 1
    35   23   24 ar
    36   24   25 ar
    37   24   34 1
    38   25   35 1
@<TRIPOS>MOLECULE
ZINC45665921
   39    40     0     0     0
SMALL
USER_CHARGES

@<TRIPOS>ATOM
      1 C1         -0.0187    1.5258    0.0104 C.3       1 <0>        -0.1454
      2 C2          0.0021   -0.0041    0.0020 C.3       1 <0>         0.0735
      3 H1         -1.0202   -0.3821    0.0097 H         1 <0>         0.0698
      4 C3          0.7217   -0.4995   -1.2576 C.3       1 <0>         0.0866
      5 N1          0.8936   -1.9570   -1.1510 N.pl3     1 <0>        -0.9925
      6 C4          1.4828   -2.4954    0.0852 C.3       1 <0>         0.0945
      7 C5          0.7262   -1.9027    1.2795 C.3       1 <0>         0.1057
      8 O1          0.6954   -0.4786    1.1587 O.3       1 <0>        -0.3635
      9 C6          1.4366   -2.2902    2.5779 C.3       1 <0>        -0.1383
     10 C7         -0.7047   -2.4441    1.2975 C.3       1 <0>        -0.1824
     11 S1          0.4379   -2.9617   -2.3860 S.o2      1 <0>         2.6860
     12 O2          0.1987   -4.2364   -1.8053 O.2       1 <0>        -0.9498
     13 O3         -0.5522   -2.2662   -3.1311 O.2       1 <0>        -0.9365
     14 C8          1.8311   -3.1459   -3.4488 C.ar      1 <0>        -0.6217
     15 C9          2.4307   -4.3819   -3.5926 C.ar      1 <0>        -0.0922
     16 C10         3.5285   -4.5265   -4.4308 C.ar      1 <0>         0.2070
     17 C11         4.0205   -3.4268   -5.1225 C.ar      1 <0>        -0.1351
     18 C12         3.4171   -2.1935   -4.9751 C.ar      1 <0>        -0.0744
     19 C13         2.3200   -2.0535   -4.1431 C.ar      1 <0>        -0.0079
     20 Cl1         1.5598   -0.5029   -3.9652 Cl        1 <0>        -0.0512
     21 N2          4.1374   -5.7756   -4.5777 N.pl3     1 <0>        -0.8704
     22 H2          1.0039    1.9031    0.0027 H         1 <0>         0.0667
     23 H3         -0.5459    1.8868   -0.8726 H         1 <0>         0.0747
     24 H4         -0.5289    1.8773    0.9072 H         1 <0>         0.0697
     25 H5          0.1243   -0.2637   -2.1384 H         1 <0>         0.1047
     26 H6          1.6972   -0.0195   -1.3359 H         1 <0>         0.0817
     27 H7          1.3895   -3.5813    0.0938 H         1 <0>         0.1036
     28 H8          2.5350   -2.2163    0.1422 H         1 <0>         0.0804
     29 H9          2.4551   -1.9020    2.5646 H         1 <0>         0.0669
     30 H10         0.8981   -1.8685    3.4266 H         1 <0>         0.0702
     31 H11         1.4629   -3.3762    2.6676 H         1 <0>         0.0754
     32 H12        -0.6812   -3.5302    1.3855 H         1 <0>         0.0737
     33 H13        -1.2421   -2.0223    2.1468 H         1 <0>         0.0696
     34 H14        -1.2103   -2.1653    0.3729 H         1 <0>         0.0583
     35 H15         2.0464   -5.2351   -3.0533 H         1 <0>         0.1499
     36 H16         4.8743   -3.5363   -5.7748 H         1 <0>         0.1398
     37 H17         3.7994   -1.3382   -5.5124 H         1 <0>         0.1442
     38 H18         3.7933   -6.5428   -4.0940 H         1 <0>         0.4046
     39 H19         4.9041   -5.8756   -5.1634 H         1 <0>         0.4041
@<TRIPOS>BOND
     1    1    2 1
     2    1   22 1
     3    1   23 1
     4    1   24 1
     5    2    3 1
     6    2    8 1
     7    2    4 1
     8    4    5 1
     9    4   25 1
    10    4   26 1
    11    5    6 1
    12    5   11 1
    13    6    7 1
    14    6   27 1
    15    6   28 1
    16    7    8 1
    17    7    9 1
    18    7   10 1
    19    9   29 1
    20    9   30 1
    21    9   31 1
    22   10   32 1
    23   10   33 1
    24   10   34 1
    25   11   12 2
    26   11   13 2
    27   11   14 1
    28   14   19 ar
    29   14   15 ar
    30   15   16 ar
    31   15   35 1
    32   16   17 ar
    33   16   21 1
    34   17   18 ar
    35   17   36 1
    36   18   19 ar
    37   18   37 1
    38   19   20 1
    39   21   38 1
    40   21   39 1
@<TRIPOS>MOLECULE
ZINC61405869
   47    48     0     0     0
SMALL
USER_CHARGES

@<TRIPOS>ATOM
      1 C1          2.4534    0.8701   -0.5126 C.3       1 <0>        -0.0932
      2 C2          1.5559   -0.3118   -0.2506 C.2       1 <0>         0.1460
      3 C3          0.6707   -0.7733   -1.1997 C.2       1 <0>        -0.2891
      4 S1         -0.0711   -2.1378   -0.3181 S.3       1 <0>         0.1452
      5 C4          0.7939   -1.9830    1.1174 C.2       1 <0>         0.0828
      6 N1          1.5812   -0.9564    0.8895 N.2       1 <0>        -0.5143
      7 C5          0.6936   -2.8244    2.3636 C.3       1 <0>         0.0191
      8 C6          0.2907   -1.9399    3.5452 C.3       1 <0>        -0.1374
      9 C7         -0.3607   -3.9143    2.1596 C.3       1 <0>        -0.1556
     10 C8          2.0489   -3.4734    2.6512 C.3       1 <0>        -0.1357
     11 C9          0.4097   -0.2809   -2.5566 C.2       1 <0>         0.6160
     12 O1          0.2567    0.9102   -2.7526 O.2       1 <0>        -0.5038
     13 N2          0.3395   -1.1478   -3.5862 N.am      1 <0>        -0.5991
     14 C10         0.3960   -2.5968   -3.3499 C.3       1 <0>         0.1103
     15 C11         1.5054   -3.1954   -4.2203 C.3       1 <0>        -0.1240
     16 C12         1.2687   -2.8055   -5.6811 C.3       1 <0>        -0.1022
     17 C13         1.3161   -1.2820   -5.8184 C.3       1 <0>        -0.1323
     18 C14         0.1988   -0.6619   -4.9656 C.3       1 <0>         0.1432
     19 C15         0.3208    0.8631   -4.9872 C.3       1 <0>        -0.1433
     20 C16         1.4907   -4.6969   -4.0917 C.2       1 <0>         0.5247
     21 O2          1.3117   -5.3878   -5.0723 O.2       1 <0>        -0.5311
     22 N3          1.6765   -5.2719   -2.8870 N.am      1 <0>        -0.8549
     23 H1          3.3912    0.5247   -0.9478 H         1 <0>         0.0786
     24 H2          1.9615    1.5534   -1.2049 H         1 <0>         0.0901
     25 H3          2.6566    1.3869    0.4253 H         1 <0>         0.0809
     26 H4         -0.6749   -1.4775    3.3403 H         1 <0>         0.0584
     27 H5          0.2181   -2.5485    4.4465 H         1 <0>         0.0719
     28 H6          1.0418   -1.1635    3.6905 H         1 <0>         0.0687
     29 H7         -0.0737   -4.5444    1.3178 H         1 <0>         0.0640
     30 H8         -0.4333   -4.5229    3.0610 H         1 <0>         0.0808
     31 H9         -1.3263   -3.4519    1.9547 H         1 <0>         0.0649
     32 H10         2.8000   -2.6970    2.7965 H         1 <0>         0.0688
     33 H11         1.9764   -4.0820    3.5526 H         1 <0>         0.0718
     34 H12         2.3359   -4.1036    1.8094 H         1 <0>         0.0576
     35 H13         0.6130   -2.7875   -2.2989 H         1 <0>         0.0879
     36 H14        -0.5602   -3.0479   -3.6154 H         1 <0>         0.0837
     37 H15         2.4716   -2.8113   -3.8932 H         1 <0>         0.1045
     38 H16         2.0430   -3.2507   -6.3059 H         1 <0>         0.0794
     39 H17         0.2917   -3.1687   -6.0001 H         1 <0>         0.0759
     40 H18         2.2840   -0.9159   -5.4762 H         1 <0>         0.0710
     41 H19         1.1706   -1.0062   -6.8628 H         1 <0>         0.0858
     42 H20        -0.7731   -0.9584   -5.3601 H         1 <0>         0.0802
     43 H21         1.2590    1.1592   -4.5179 H         1 <0>         0.0655
     44 H22         0.3039    1.2144   -6.0189 H         1 <0>         0.0519
     45 H23        -0.5135    1.3021   -4.4401 H         1 <0>         0.0820
     46 H24         1.8197   -4.7193   -2.1027 H         1 <0>         0.3993
     47 H25         1.6670   -6.2383   -2.8042 H         1 <0>         0.4051
@<TRIPOS>BOND
     1    1    2 1
     2    1   23 1
     3    1   24 1
     4    1   25 1
     5    2    6 1
     6    2    3 2
     7    3    4 1
     8    3   11 1
     9    4    5 1
    10    5    6 2
    11    5    7 1
    12    7    8 1
    13    7    9 1
    14    7   10 1
    15    8   26 1
    16    8   27 1
    17    8   28 1
    18    9   29 1
    19    9   30 1
    20    9   31 1
    21   10   32 1
    22   10   33 1
    23   10   34 1
    24   11   12 2
    25   11   13 am
    26   13   18 1
    27   13   14 1
    28   14   15 1
    29   14   35 1
    30   14   36 1
    31   15   16 1
    32   15   20 1
    33   15   37 1
    34   16   17 1
    35   16   38 1
    36   16   39 1
    37   17   18 1
    38   17   40 1
    39   17   41 1
    40   18   19 1
    41   18   42 1
    42   19   43 1
    43   19   44 1
    44   19   45 1
    45   20   21 2
    46   20   22 am
    47   22   46 1
    48   22   47 1
@<TRIPOS>MOLECULE
ZINC66415280
   45    47     0     0     0
SMALL
USER_CHARGES

@<TRIPOS>ATOM
      1 C1          0.0543    0.3386    0.6849 C.3       1 <0>        -0.2342
      2 C2          0.0853   -1.1339    0.2704 C.3       1 <0>         0.0505
      3 N1          0.6271   -1.2480   -1.0860 N.am      1 <0>        -0.5915
      4 C3          2.0624   -1.4627   -1.2858 C.3       1 <0>         0.1554
      5 H1          2.2126   -2.2510   -2.0234 H         1 <0>         0.0823
      6 C4          2.7058   -1.8751    0.0397 C.3       1 <0>        -0.1260
      7 C5          2.4949   -0.7686    1.0750 C.3       1 <0>        -0.1938
      8 C6          3.1397    0.5262    0.5762 C.3       1 <0>        -0.1209
      9 C7          2.4964    0.9386   -0.7492 C.3       1 <0>        -0.1372
     10 C8          2.7072   -0.1680   -1.7846 C.3       1 <0>        -0.0997
     11 H2          3.7752   -0.3278   -1.9332 H         1 <0>         0.0740
     12 C9          2.0639    0.2444   -3.1101 C.3       1 <0>        -0.1367
     13 C10        -0.1950   -1.1554   -2.1500 C.2       1 <0>         0.5543
     14 O1          0.2671   -1.1203   -3.2740 O.2       1 <0>        -0.5157
     15 C11        -1.6565   -1.0966   -1.9506 C.ar      1 <0>        -0.1242
     16 C12        -2.1791   -0.6599   -0.7290 C.ar      1 <0>        -0.1268
     17 C13        -3.5413   -0.6036   -0.5404 C.ar      1 <0>        -0.1143
     18 C14        -4.4018   -0.9813   -1.5642 C.ar      1 <0>         0.1143
     19 C15        -3.8856   -1.4189   -2.7883 C.ar      1 <0>         0.0794
     20 C16        -2.5179   -1.4713   -2.9834 C.ar      1 <0>        -0.0437
     21 N2         -4.9778   -1.7214   -3.5996 N.am      1 <0>        -0.6398
     22 H3         -4.9349   -2.0507   -4.5110 H         1 <0>         0.4386
     23 C17        -6.1026   -1.4787   -2.9006 C.2       1 <0>         0.6846
     24 O2         -7.2345   -1.6391   -3.3172 O.2       1 <0>        -0.5492
     25 N3         -5.7855   -1.0319   -1.6711 N.am      1 <0>        -0.6395
     26 H4         -6.4170   -0.7870   -0.9767 H         1 <0>         0.4379
     27 H5          1.0743    0.7069    0.7941 H         1 <0>         0.1144
     28 H6         -0.4623    0.9202   -0.0786 H         1 <0>         0.0735
     29 H7         -0.4714    0.4376    1.6347 H         1 <0>         0.0773
     30 H8          0.7160   -1.6928    0.9617 H         1 <0>         0.1098
     31 H9         -0.9263   -1.5391    0.2928 H         1 <0>         0.1067
     32 H10         2.2464   -2.7975    0.3951 H         1 <0>         0.0694
     33 H11         3.7737   -2.0349   -0.1090 H         1 <0>         0.0783
     34 H12         1.4270   -0.6088    1.2237 H         1 <0>         0.1277
     35 H13         2.9532   -1.0624    2.0193 H         1 <0>         0.0621
     36 H14         2.9895    1.3145    1.3138 H         1 <0>         0.0624
     37 H15         4.2076    0.3664    0.4276 H         1 <0>         0.0614
     38 H16         1.4284    1.0984   -0.6006 H         1 <0>         0.0843
     39 H17         2.9557    1.8610   -1.1046 H         1 <0>         0.0593
     40 H18         1.0461    0.5896   -2.9281 H         1 <0>         0.0583
     41 H19         2.6450    1.0487   -3.5613 H         1 <0>         0.0324
     42 H20         2.0422   -0.6111   -3.7851 H         1 <0>         0.0757
     43 H21        -1.5122   -0.3666    0.0682 H         1 <0>         0.1866
     44 H22        -3.9418   -0.2660    0.4041 H         1 <0>         0.1390
     45 H23        -2.1174   -1.8051   -3.9292 H         1 <0>         0.1435
@<TRIPOS>BOND
     1    1    2 1
     2    1   27 1
     3    1   28 1
     4    1   29 1
     5    2    3 1
     6    2   30 1
     7    2   31 1
     8    3    4 1
     9    3   13 am
    10    4    5 1
    11    4   10 1
    12    4    6 1
    13    6    7 1
    14    6   32 1
    15    6   33 1
    16    7    8 1
    17    7   34 1
    18    7   35 1
    19    8    9 1
    20    8   36 1
    21    8   37 1
    22    9   10 1
    23    9   38 1
    24    9   39 1
    25   10   11 1
    26   10   12 1
    27   12   40 1
    28   12   41 1
    29   12   42 1
    30   13   14 2
    31   13   15 1
    32   15   20 ar
    33   15   16 ar
    34   16   17 ar
    35   16   43 1
    36   17   18 ar
    37   17   44 1
    38   18   25 1
    39   18   19 ar
    40   19   20 ar
    41   19   21 1
    42   20   45 1
    43   21   22 1
    44   21   23 am
    45   23   24 2
    46   23   25 am
    47   25   26 1
@<TRIPOS>MOLECULE
ZINC13636672
   47    50     0     0     0
SMALL
USER_CHARGES
N-[(3aS,4R,9bS)-4-(4-hydroxyphenyl)-3a,4,5,9b-tetrahydro-3H-cyclopenta[c]quinolin-8-yl]-N-methyl-acetamide
@<TRIPOS>ATOM
      1 C1         -8.6330    7.2749    1.3614 C.3       1 <0>        -0.1774
      2 C2         -7.6964    6.2778    0.7294 C.2       1 <0>         0.5102
      3 O1         -7.8158    5.9925   -0.4435 O.2       1 <0>        -0.5242
      4 N1         -6.7260    5.7031    1.4673 N.am      1 <0>        -0.5513
      5 C3         -6.5244    6.1130    2.8592 C.3       1 <0>         0.0636
      6 C4         -5.9098    4.7133    0.9030 C.ar      1 <0>         0.0944
      7 C5         -6.0030    4.4230   -0.4518 C.ar      1 <0>        -0.1203
      8 C6         -5.2048    3.4442   -1.0056 C.ar      1 <0>        -0.1703
      9 C7         -4.3018    2.7422   -0.2162 C.ar      1 <0>         0.1951
     10 C8         -4.2011    3.0476    1.1456 C.ar      1 <0>        -0.1140
     11 C9         -5.0058    4.0207    1.6969 C.ar      1 <0>        -0.1078
     12 C10        -3.1964    2.3069    1.9393 C.3       1 <0>        -0.0393
     13 H1         -2.2220    2.7627    1.7633 H         1 <0>         0.0972
     14 C11        -3.3504    2.0996    3.4023 C.2       1 <0>        -0.1482
     15 C12        -2.7840    0.9443    3.7288 C.2       1 <0>        -0.1676
     16 C13        -2.2268    0.2628    2.4774 C.3       1 <0>        -0.0910
     17 C14        -3.1209    0.8547    1.3799 C.3       1 <0>        -0.1011
     18 H2         -4.1021    0.3810    1.3455 H         1 <0>         0.0963
     19 C15        -2.5202    0.9857   -0.0081 C.3       1 <0>         0.2064
     20 H3         -2.3588    0.0004   -0.4454 H         1 <0>         0.1000
     21 N2         -3.5139    1.7407   -0.8023 N.pl3     1 <0>        -0.7458
     22 C16        -1.2201    1.7450    0.0567 C.ar      1 <0>        -0.1085
     23 C17        -1.2201    3.1237   -0.0471 C.ar      1 <0>        -0.0837
     24 C18        -0.0303    3.8225    0.0183 C.ar      1 <0>        -0.1471
     25 C19         1.1659    3.1393    0.1825 C.ar      1 <0>         0.1071
     26 C20         1.1638    1.7555    0.2807 C.ar      1 <0>        -0.1452
     27 C21        -0.0287    1.0613    0.2147 C.ar      1 <0>        -0.0948
     28 O2          2.3378    3.8245    0.2475 O.3       1 <0>        -0.5000
     29 H4         -8.3171    7.4713    2.3860 H         1 <0>         0.0834
     30 H5         -8.6140    8.2035    0.7910 H         1 <0>         0.0990
     31 H6         -9.6455    6.8710    1.3644 H         1 <0>         0.0992
     32 H7         -5.8848    6.9951    2.8892 H         1 <0>         0.0676
     33 H8         -7.4877    6.3471    3.3122 H         1 <0>         0.0834
     34 H9         -6.0506    5.3017    3.4119 H         1 <0>         0.0831
     35 H10        -6.7016    4.9643   -1.0726 H         1 <0>         0.1808
     36 H11        -5.2823    3.2214   -2.0595 H         1 <0>         0.1222
     37 H12        -4.9334    4.2451    2.7508 H         1 <0>         0.1244
     38 H13        -3.8411    2.7763    4.0863 H         1 <0>         0.1272
     39 H14        -2.7256    0.5441    4.7302 H         1 <0>         0.1286
     40 H15        -1.1827    0.5320    2.3181 H         1 <0>         0.0850
     41 H16        -2.3450   -0.8192    2.5364 H         1 <0>         0.0737
     42 H17        -3.6228    1.5394   -1.7449 H         1 <0>         0.4015
     43 H18        -2.1516    3.6551   -0.1749 H         1 <0>         0.1313
     44 H19        -0.0313    4.8998   -0.0581 H         1 <0>         0.1273
     45 H20         2.0937    1.2213    0.4089 H         1 <0>         0.1297
     46 H21        -0.0309   -0.0160    0.2915 H         1 <0>         0.1286
     47 H22         2.5919    4.0849    1.1434 H         1 <0>         0.3913
@<TRIPOS>BOND
     1    1    2 1
     2    1   29 1
     3    1   30 1
     4    1   31 1
     5    2    3 2
     6    2    4 am
     7    4    5 1
     8    4    6 1
     9    5   32 1
    10    5   33 1
    11    5   34 1
    12    6   11 ar
    13    6    7 ar
    14    7    8 ar
    15    7   35 1
    16    8    9 ar
    17    8   36 1
    18    9   21 1
    19    9   10 ar
    20   10   11 ar
    21   10   12 1
    22   11   37 1
    23   12   13 1
    24   12   17 1
    25   12   14 1
    26   14   15 2
    27   14   38 1
    28   15   16 1
    29   15   39 1
    30   16   17 1
    31   16   40 1
    32   16   41 1
    33   17   18 1
    34   17   19 1
    35   19   20 1
    36   19   21 1
    37   19   22 1
    38   21   42 1
    39   22   27 ar
    40   22   23 ar
    41   23   24 ar
    42   23   43 1
    43   24   25 ar
    44   24   44 1
    45   25   26 ar
    46   25   28 1
    47   26   27 ar
    48   26   45 1
    49   27   46 1
    50   28   47 1
@<TRIPOS>MOLECULE
ZINC37063315
   38    39     0     0     0
SMALL
USER_CHARGES

@<TRIPOS>ATOM
      1 C1         -1.0426    1.2643   -0.0971 C.3       1 <0>        -0.1623
      2 C2         -0.4139   -0.0489   -0.5675 C.3       1 <0>         0.1364
      3 H1         -1.0392   -0.8855   -0.2560 H         1 <0>         0.1018
      4 C3         -0.2898   -0.0409   -2.0943 C.3       1 <0>        -0.1314
      5 C4          0.6962    1.0509   -2.5163 C.3       1 <0>        -0.1188
      6 C5          2.0745    0.7536   -1.9212 C.3       1 <0>        -0.1301
      7 C6          1.9772    0.7546   -0.3924 C.3       1 <0>         0.1541
      8 H2          1.7243    1.7556   -0.0430 H         1 <0>         0.0831
      9 N1          0.9262   -0.1909    0.0180 N.pl3     1 <0>        -0.9819
     10 S1          1.2456   -1.3914    1.1130 S.o2      1 <0>         2.6845
     11 O1          2.3518   -0.9502    1.8882 O.2       1 <0>        -0.9359
     12 O2          0.0009   -1.7503    1.6969 O.2       1 <0>        -0.9469
     13 C7          1.7974   -2.7947    0.2013 C.ar      1 <0>        -0.7306
     14 C8          0.9274   -3.4487   -0.6533 C.ar      1 <0>         0.1113
     15 C9          1.3575   -4.5498   -1.3698 C.ar      1 <0>        -0.2060
     16 C10         2.6644   -4.9993   -1.2316 C.ar      1 <0>         0.2911
     17 C11         3.5356   -4.3407   -0.3734 C.ar      1 <0>        -0.2073
     18 C12         3.1015   -3.2372    0.3369 C.ar      1 <0>         0.1036
     19 Cl1         4.1916   -2.4094    1.4047 Cl        1 <0>         0.0046
     20 N2          3.1016   -6.1119   -1.9539 N.pl3     1 <0>        -0.8545
     21 Cl2        -0.7059   -2.8861   -0.8254 Cl        1 <0>        -0.0270
     22 C13         3.3179    0.3256    0.2071 C.3       1 <0>        -0.1829
     23 H3         -0.4159    2.0996   -0.4095 H         1 <0>         0.0647
     24 H4         -2.0345    1.3701   -0.5365 H         1 <0>         0.0682
     25 H5         -1.1254    1.2587    0.9897 H         1 <0>         0.0614
     26 H6          0.0734   -1.0105   -2.4349 H         1 <0>         0.0679
     27 H7         -1.2654    0.1589   -2.5376 H         1 <0>         0.0748
     28 H8          0.7677    1.0750   -3.6037 H         1 <0>         0.0642
     29 H9          0.3450    2.0171   -2.1541 H         1 <0>         0.0684
     30 H10         2.4154   -0.2236   -2.2634 H         1 <0>         0.0653
     31 H11         2.7817    1.5188   -2.2413 H         1 <0>         0.0750
     32 H12         0.6779   -5.0602   -2.0361 H         1 <0>         0.1466
     33 H13         4.5523   -4.6884   -0.2638 H         1 <0>         0.1471
     34 H14         2.4924   -6.5714   -2.5527 H         1 <0>         0.4087
     35 H15         4.0145   -6.4251   -1.8568 H         1 <0>         0.4090
     36 H16         4.1314    0.7540   -0.3783 H         1 <0>         0.0672
     37 H17         3.3854    0.6790    1.2361 H         1 <0>         0.0937
     38 H18         3.3919   -0.7617    0.1908 H         1 <0>         0.0632
@<TRIPOS>BOND
     1    1    2 1
     2    1   23 1
     3    1   24 1
     4    1   25 1
     5    2    3 1
     6    2    9 1
     7    2    4 1
     8    4    5 1
     9    4   26 1
    10    4   27 1
    11    5    6 1
    12    5   28 1
    13    5   29 1
    14    6    7 1
    15    6   30 1
    16    6   31 1
    17    7    8 1
    18    7    9 1
    19    7   22 1
    20    9   10 1
    21   10   11 2
    22   10   12 2
    23   10   13 1
    24   13   18 ar
    25   13   14 ar
    26   14   15 ar
    27   14   21 1
    28   15   16 ar
    29   15   32 1
    30   16   17 ar
    31   16   20 1
    32   17   18 ar
    33   17   33 1
    34   18   19 1
    35   20   34 1
    36   20   35 1
    37   22   36 1
    38   22   37 1
    39   22   38 1
@<TRIPOS>MOLECULE
ZINC41067735
   36    38     0     0     0
SMALL
USER_CHARGES

@<TRIPOS>ATOM
      1 C1         -0.0650    1.4745   -0.0454 C.3       1 <0>        -0.1688
      2 C2          0.0066   -0.0536   -0.0203 C.3       1 <0>         0.1295
      3 H1         -1.0006   -0.4703   -0.0213 H         1 <0>         0.1150
      4 C3          0.7787   -0.5578   -1.2466 C.3       1 <0>        -0.1255
      5 C4          2.1612    0.0941   -1.2618 C.3       1 <0>        -0.0785
      6 C5          2.8419   -0.0826    0.0699 C.ar      1 <0>        -0.1086
      7 C6          4.2199    0.0383    0.1394 C.ar      1 <0>        -0.0903
      8 C7          4.8731   -0.1154    1.3466 C.ar      1 <0>        -0.1407
      9 C8          4.1541   -0.3905    2.4957 C.ar      1 <0>        -0.0819
     10 C9          2.7807   -0.5136    2.4353 C.ar      1 <0>        -0.1669
     11 C10         2.1210   -0.3611    1.2205 C.ar      1 <0>         0.1783
     12 N1          0.7279   -0.4983    1.1800 N.pl3     1 <0>        -0.9285
     13 S1         -0.0931   -1.1508    2.4616 S.o2      1 <0>         2.7207
     14 O1         -1.3821   -1.5055    1.9801 O.2       1 <0>        -0.9368
     15 O2          0.7808   -2.0945    3.0657 O.2       1 <0>        -0.9309
     16 C11        -0.3324    0.1390    3.6380 C.2       1 <0>        -0.7468
     17 C12        -1.3659    1.0089    3.7515 C.2       1 <0>        -0.0376
     18 C13        -1.3414    1.9516    4.7668 C.2       1 <0>         0.1440
     19 C14        -0.2809    1.9730    5.6162 C.2       1 <0>        -0.2374
     20 S2          0.7198    0.6325    4.9930 S.3       1 <0>         0.1801
     21 N2         -2.3966    2.8716    4.9154 N.pl3     1 <0>        -0.8754
     22 H2          0.9445    1.8856   -0.0443 H         1 <0>         0.0702
     23 H3         -0.5885    1.7990   -0.9447 H         1 <0>         0.0770
     24 H4         -0.6021    1.8275    0.8350 H         1 <0>         0.0581
     25 H5          0.8863   -1.6410   -1.1904 H         1 <0>         0.0760
     26 H6          0.2383   -0.2892   -2.1543 H         1 <0>         0.0888
     27 H7          2.7684   -0.3670   -2.0408 H         1 <0>         0.0819
     28 H8          2.0556    1.1580   -1.4740 H         1 <0>         0.0814
     29 H9          4.7863    0.2535   -0.7546 H         1 <0>         0.1270
     30 H10         5.9479   -0.0202    1.3936 H         1 <0>         0.1257
     31 H11         4.6667   -0.5093    3.4389 H         1 <0>         0.1301
     32 H12         2.2181   -0.7281    3.3318 H         1 <0>         0.1298
     33 H13        -2.1954    0.9681    3.0610 H         1 <0>         0.1474
     34 H14        -0.0942    2.6282    6.4542 H         1 <0>         0.1920
     35 H15        -3.1494    2.8491    4.3041 H         1 <0>         0.3989
     36 H16        -2.3709    3.5280    5.6291 H         1 <0>         0.4026
@<TRIPOS>BOND
     1    1    2 1
     2    1   22 1
     3    1   23 1
     4    1   24 1
     5    2    3 1
     6    2   12 1
     7    2    4 1
     8    4    5 1
     9    4   25 1
    10    4   26 1
    11    5    6 1
    12    5   27 1
    13    5   28 1
    14    6   11 ar
    15    6    7 ar
    16    7    8 ar
    17    7   29 1
    18    8    9 ar
    19    8   30 1
    20    9   10 ar
    21    9   31 1
    22   10   11 ar
    23   10   32 1
    24   11   12 1
    25   12   13 1
    26   13   14 2
    27   13   15 2
    28   13   16 1
    29   16   20 1
    30   16   17 2
    31   17   18 1
    32   17   33 1
    33   18   19 2
    34   18   21 1
    35   19   20 1
    36   19   34 1
    37   21   35 1
    38   21   36 1
@<TRIPOS>MOLECULE
ZINC39446760
   37    40     0     0     0
SMALL
USER_CHARGES

@<TRIPOS>ATOM
      1 C1         -0.0179    1.5600    0.0307 C.3       1 <0>        -0.1414
      2 C2         -0.0042    0.0302    0.0079 C.3       1 <0>        -0.0526
      3 H1         -1.0316   -0.3338    0.0022 H         1 <0>         0.1125
      4 C3          0.6901   -0.4368   -1.2478 C.ar      1 <0>        -0.0995
      5 C4          0.5850    0.1336   -2.5191 C.ar      1 <0>        -0.0910
      6 C5          1.2595   -0.3968   -3.5954 C.ar      1 <0>        -0.1193
      7 C6          2.0624   -1.5135   -3.4484 C.ar      1 <0>        -0.1008
      8 C7          2.1882   -2.0908   -2.1990 C.ar      1 <0>        -0.0845
      9 C8          1.5159   -1.5505   -1.1185 C.ar      1 <0>        -0.0782
     10 S1          1.4840   -2.0081    0.6005 S.3       1 <0>        -0.1112
     11 C9          0.7062   -0.4862    1.2792 C.3       1 <0>        -0.0472
     12 H2          1.4571    0.2217    1.6302 H         1 <0>         0.1311
     13 C10        -0.2840   -0.8155    2.3665 C.2       1 <0>         0.5308
     14 O1         -1.3710   -1.2784    2.0790 O.2       1 <0>        -0.5712
     15 N1          0.0310   -0.5999    3.6399 N.2       1 <0>        -0.6615
     16 C11        -0.8786   -0.7916    4.5918 C.2       1 <0>         0.6560
     17 N2         -2.1190   -1.3132    4.4017 N.pl3     1 <0>        -0.6055
     18 H3         -2.4882   -1.6068    3.5541 H         1 <0>         0.4514
     19 C12        -2.7682   -1.3538    5.6313 C.ar      1 <0>         0.0777
     20 C13        -4.0291   -1.7813    6.0232 C.ar      1 <0>        -0.0981
     21 C14        -4.4027   -1.6960    7.3493 C.ar      1 <0>        -0.1007
     22 C15        -3.5249   -1.1856    8.2909 C.ar      1 <0>        -0.1024
     23 C16        -2.2685   -0.7577    7.9116 C.ar      1 <0>        -0.0966
     24 C17        -1.8830   -0.8392    6.5808 C.ar      1 <0>         0.0816
     25 N3         -0.7123   -0.5021    5.9091 N.pl3     1 <0>        -0.5866
     26 H4          0.0848   -0.1232    6.3115 H         1 <0>         0.4472
     27 H5          1.0064    1.9327    0.0239 H         1 <0>         0.0638
     28 H6         -0.5456    1.9318   -0.8476 H         1 <0>         0.0664
     29 H7         -0.5243    1.9054    0.9320 H         1 <0>         0.0618
     30 H8         -0.0366    1.0056   -2.6597 H         1 <0>         0.1240
     31 H9          1.1603    0.0646   -4.5668 H         1 <0>         0.1281
     32 H10         2.5835   -1.9288   -4.2983 H         1 <0>         0.1339
     33 H11         2.8110   -2.9631   -2.0669 H         1 <0>         0.1294
     34 H12        -4.7168   -2.1796    5.2919 H         1 <0>         0.1359
     35 H13        -5.3841   -2.0284    7.6538 H         1 <0>         0.1393
     36 H14        -3.8246   -1.1218    9.3265 H         1 <0>         0.1399
     37 H15        -1.5868   -0.3604    8.6490 H         1 <0>         0.1374
@<TRIPOS>BOND
     1    1    2 1
     2    1   27 1
     3    1   28 1
     4    1   29 1
     5    2    3 1
     6    2   11 1
     7    2    4 1
     8    4    9 ar
     9    4    5 ar
    10    5    6 ar
    11    5   30 1
    12    6    7 ar
    13    6   31 1
    14    7    8 ar
    15    7   32 1
    16    8    9 ar
    17    8   33 1
    18    9   10 1
    19   10   11 1
    20   11   12 1
    21   11   13 1
    22   13   14 2
    23   13   15 1
    24   15   16 2
    25   16   25 1
    26   16   17 1
    27   17   18 1
    28   17   19 1
    29   19   24 ar
    30   19   20 ar
    31   20   21 ar
    32   20   34 1
    33   21   22 ar
    34   21   35 1
    35   22   23 ar
    36   22   36 1
    37   23   24 ar
    38   23   37 1
    39   24   25 1
    40   25   26 1
@<TRIPOS>MOLECULE
ZINC62497578
   44    46     0     0     0
SMALL
USER_CHARGES

@<TRIPOS>ATOM
      1 C1         -0.0184    1.5028    0.0103 C.3       1 <0>        -0.1142
      2 C2          0.0021   -0.0041    0.0020 C.ar      1 <0>        -0.0909
      3 C3          0.0057   -0.6888   -1.1991 C.ar      1 <0>        -0.1151
      4 C4          0.0245   -2.0707   -1.2067 C.ar      1 <0>        -0.1150
      5 C5          0.0400   -2.7685   -0.0132 C.ar      1 <0>        -0.0839
      6 C6          0.0373   -2.0840    1.1875 C.ar      1 <0>        -0.0783
      7 C7          0.0229   -0.7015    1.1951 C.ar      1 <0>        -0.0965
      8 C8          0.0538   -2.8445    2.4885 C.3       1 <0>        -0.1032
      9 C9          1.4973   -3.1918    2.8579 C.3       1 <0>         0.0934
     10 H1          1.9632   -3.7309    2.0330 H         1 <0>         0.1483
     11 C10         1.5048   -4.0586    4.0917 C.2       1 <0>         0.4935
     12 O1          1.5094   -5.2671    3.9869 O.2       1 <0>        -0.5039
     13 N1          1.5068   -3.4844    5.3130 N.am      1 <0>        -0.5407
     14 C11         1.6299   -2.0893    5.4134 C.ar      1 <0>         0.0322
     15 C12         1.4083   -1.4494    6.6224 C.ar      1 <0>        -0.0710
     16 C13         1.5194   -0.0743    6.7055 C.ar      1 <0>        -0.1903
     17 C14         1.8525    0.6673    5.5793 C.ar      1 <0>         0.2312
     18 C15         2.0801    0.0283    4.3673 C.ar      1 <0>        -0.1905
     19 C16         1.9747   -1.3491    4.2845 C.ar      1 <0>         0.1357
     20 O2          2.2259   -1.9887    3.1116 O.3       1 <0>        -0.2909
     21 N2          1.9582    2.0593    5.6657 N.pl3     1 <0>        -0.8727
     22 C17         1.3816   -4.3065    6.5191 C.3       1 <0>         0.2212
     23 C18         2.7205   -4.7083    6.9802 C.1       1 <0>        -0.2165
     24 C19         3.7884   -5.0287    7.3480 C.1       1 <0>        -0.1660
     25 C20         0.0595   -4.2753   -0.0215 C.3       1 <0>        -0.1228
     26 H2          1.0042    1.8801    0.0026 H         1 <0>         0.0699
     27 H3         -0.5455    1.8639   -0.8728 H         1 <0>         0.0657
     28 H4         -0.5286    1.8543    0.9071 H         1 <0>         0.0650
     29 H5         -0.0064   -0.1437   -2.1314 H         1 <0>         0.1213
     30 H6          0.0266   -2.6056   -2.1449 H         1 <0>         0.1227
     31 H7          0.0246   -0.1666    2.1333 H         1 <0>         0.1200
     32 H8         -0.3845   -2.2295    3.2744 H         1 <0>         0.0840
     33 H9         -0.5244   -3.7622    2.3802 H         1 <0>         0.0997
     34 H10         1.1486   -2.0246    7.4988 H         1 <0>         0.1332
     35 H11         1.3474    0.4244    7.6479 H         1 <0>         0.1302
     36 H12         2.3384    0.6050    3.4915 H         1 <0>         0.1369
     37 H13         1.7991    2.5062    6.5118 H         1 <0>         0.4018
     38 H14         2.1908    2.5778    4.8796 H         1 <0>         0.4006
     39 H15         0.8854   -3.7315    7.3009 H         1 <0>         0.1108
     40 H16         0.7931   -5.1958    6.2932 H         1 <0>         0.1141
     41 H17         4.7435   -5.3153    7.6770 H         1 <0>         0.2204
     42 H18         1.0917   -4.6253   -0.0291 H         1 <0>         0.0725
     43 H19        -0.4447   -4.6501    0.8693 H         1 <0>         0.0692
     44 H20        -0.4546   -4.6404   -0.9106 H         1 <0>         0.0688
@<TRIPOS>BOND
     1    1    2 1
     2    1   26 1
     3    1   27 1
     4    1   28 1
     5    2    7 ar
     6    2    3 ar
     7    3    4 ar
     8    3   29 1
     9    4    5 ar
    10    4   30 1
    11    5    6 ar
    12    5   25 1
    13    6    7 ar
    14    6    8 1
    15    7   31 1
    16    8    9 1
    17    8   32 1
    18    8   33 1
    19    9   10 1
    20    9   20 1
    21    9   11 1
    22   11   12 2
    23   11   13 am
    24   13   14 1
    25   13   22 1
    26   14   19 ar
    27   14   15 ar
    28   15   16 ar
    29   15   34 1
    30   16   17 ar
    31   16   35 1
    32   17   18 ar
    33   17   21 1
    34   18   19 ar
    35   18   36 1
    36   19   20 1
    37   21   37 1
    38   21   38 1
    39   22   23 1
    40   22   39 1
    41   22   40 1
    42   23   24 3
    43   24   41 1
    44   25   42 1
    45   25   43 1
    46   25   44 1
@<TRIPOS>MOLECULE
ZINC09159567
   60    65     0     0     0
SMALL
USER_CHARGES
acetyl-(2-ethoxyphenyl)-BLAHdione
@<TRIPOS>ATOM
      1 C1          6.4661    9.4160    1.0554 C.3       1 <0>        -0.1537
      2 C2          5.9629    9.2183   -0.3759 C.3       1 <0>         0.0553
      3 O1          5.2802    7.9667   -0.4721 O.3       1 <0>        -0.3146
      4 C3          4.7675    7.6352   -1.6863 C.ar      1 <0>         0.1480
      5 C4          4.9182    8.4974   -2.7630 C.ar      1 <0>        -0.2116
      6 C5          4.3959    8.1584   -3.9960 C.ar      1 <0>        -0.0646
      7 C6          3.7229    6.9612   -4.1577 C.ar      1 <0>        -0.1514
      8 C7          3.5764    6.0980   -3.0879 C.ar      1 <0>        -0.0341
      9 C8          4.0925    6.4348   -1.8512 C.ar      1 <0>        -0.1508
     10 C9          3.9275    5.4959   -0.6841 C.3       1 <0>         0.0073
     11 H1          4.0829    6.0254    0.2559 H         1 <0>         0.1125
     12 C10         2.5173    4.8400   -0.7105 C.3       1 <0>         0.0464
     13 H2          2.1487    4.8794   -1.6393 H         1 <0>         0.0897
     14 N1          2.7707    3.4693   -0.2522 N.pl3     1 <0>        -0.4592
     15 C11         1.8100    2.5096   -0.4578 C.ar      1 <0>         0.1426
     16 C12         0.4920    2.7963   -0.7555 C.ar      1 <0>        -0.1636
     17 C13        -0.4099    1.7666   -0.9537 C.ar      1 <0>        -0.0788
     18 C14        -0.0014    0.4469   -0.8619 C.ar      1 <0>        -0.1501
     19 C15         1.3109    0.1408   -0.5572 C.ar      1 <0>        -0.0699
     20 C16         2.2268    1.1641   -0.3543 C.ar      1 <0>        -0.1042
     21 C17         3.6441    0.8843   -0.0233 C.2       1 <0>        -0.0736
     22 C18         4.5517    1.8321   -0.3187 C.2       1 <0>        -0.1649
     23 C19         4.0249    3.0820   -0.9549 C.3       1 <0>         0.1396
     24 H3          3.8207    2.9016   -2.0103 H         1 <0>         0.0845
     25 C20         4.9092    4.3115   -0.8032 C.3       1 <0>        -0.1541
     26 C21         5.8260    4.4962   -1.9828 C.2       1 <0>         0.4265
     27 O2          5.4966    4.6061   -3.1444 O.2       1 <0>        -0.3954
     28 C22         7.1925    4.5164   -1.4569 C.ar      1 <0>        -0.1422
     29 C23         8.4021    4.6650   -2.1429 C.ar      1 <0>        -0.0525
     30 C24         9.5652    4.6446   -1.3842 C.ar      1 <0>        -0.1010
     31 C25         9.5432    4.4843   -0.0129 C.ar      1 <0>        -0.0985
     32 C26         8.3563    4.3348    0.6926 C.ar      1 <0>        -0.0539
     33 C27         7.1699    4.3535   -0.0476 C.ar      1 <0>        -0.1420
     34 C28         5.7873    4.2232    0.4169 C.2       1 <0>         0.4270
     35 O3          5.4204    4.0725    1.5625 O.2       1 <0>        -0.3863
     36 C29         1.5819    5.5539    0.2309 C.2       1 <0>         0.3519
     37 O4          1.3546    5.0908    1.3228 O.2       1 <0>        -0.4139
     38 C30         0.9301    6.8458   -0.1902 C.3       1 <0>        -0.1927
     39 H4          5.6197    9.4101    1.7422 H         1 <0>         0.0677
     40 H5          7.1502    8.6081    1.3149 H         1 <0>         0.0660
     41 H6          6.9869   10.3708    1.1288 H         1 <0>         0.0805
     42 H7          6.8093    9.2242   -1.0627 H         1 <0>         0.0626
     43 H8          5.2788   10.0262   -0.6354 H         1 <0>         0.0643
     44 H9          5.4437    9.4325   -2.6373 H         1 <0>         0.1298
     45 H10         4.5129    8.8291   -4.8344 H         1 <0>         0.1269
     46 H11         3.3152    6.6980   -5.1225 H         1 <0>         0.1268
     47 H12         3.0542    5.1616   -3.2177 H         1 <0>         0.1258
     48 H13         0.1660    3.8230   -0.8330 H         1 <0>         0.1151
     49 H14        -1.4398    1.9938   -1.1863 H         1 <0>         0.1255
     50 H15        -0.7139   -0.3481   -1.0254 H         1 <0>         0.1256
     51 H16         1.6238   -0.8901   -0.4815 H         1 <0>         0.1291
     52 H17         3.9375   -0.0468    0.4387 H         1 <0>         0.1361
     53 H18         5.6028    1.6991   -0.1091 H         1 <0>         0.1317
     54 H19         8.4304    4.7907   -3.2152 H         1 <0>         0.1457
     55 H20        10.5167    4.7574   -1.8825 H         1 <0>         0.1357
     56 H21        10.4781    4.4744    0.5278 H         1 <0>         0.1361
     57 H22         8.3497    4.2100    1.7654 H         1 <0>         0.1471
     58 H23         0.3764    6.6887   -1.0080 H         1 <0>         0.0841
     59 H24         0.2930    7.2108    0.6154 H         1 <0>         0.0891
     60 H25         1.6993    7.5864   -0.4090 H         1 <0>         0.0948
@<TRIPOS>BOND
     1    1    2 1
     2    1   39 1
     3    1   40 1
     4    1   41 1
     5    2    3 1
     6    2   42 1
     7    2   43 1
     8    3    4 1
     9    4    9 ar
    10    4    5 ar
    11    5    6 ar
    12    5   44 1
    13    6    7 ar
    14    6   45 1
    15    7    8 ar
    16    7   46 1
    17    8    9 ar
    18    8   47 1
    19    9   10 1
    20   10   11 1
    21   10   25 1
    22   10   12 1
    23   12   13 1
    24   12   14 1
    25   12   36 1
    26   14   23 1
    27   14   15 1
    28   15   20 ar
    29   15   16 ar
    30   16   17 ar
    31   16   48 1
    32   17   18 ar
    33   17   49 1
    34   18   19 ar
    35   18   50 1
    36   19   20 ar
    37   19   51 1
    38   20   21 1
    39   21   22 2
    40   21   52 1
    41   22   23 1
    42   22   53 1
    43   23   24 1
    44   23   25 1
    45   25   34 1
    46   25   26 1
    47   26   27 2
    48   26   28 1
    49   28   33 ar
    50   28   29 ar
    51   29   30 ar
    52   29   54 1
    53   30   31 ar
    54   30   55 1
    55   31   32 ar
    56   31   56 1
    57   32   33 ar
    58   32   57 1
    59   33   34 1
    60   34   35 2
    61   36   37 2
    62   36   38 1
    63   38   58 1
    64   38   59 1
    65   38   60 1
@<TRIPOS>MOLECULE
ZINC00841997
   55    60     0     0     0
SMALL
USER_CHARGES
(4-chlorophenyl)-(dimethoxymethyl)BLAHdione
@<TRIPOS>ATOM
      1 C1          2.4245    7.0254    1.8482 C.3       1 <0>         0.0125
      2 O1          1.4549    6.1304    1.2998 O.3       1 <0>        -0.3808
      3 C2          1.1274    6.3940   -0.0660 C.3       1 <0>         0.2772
      4 C3         -0.2799    5.8722   -0.3628 C.3       1 <0>         0.0717
      5 C4         -0.4879    4.3707   -0.1537 C.ar      1 <0>        -0.0787
      6 C5          0.5287    3.5548    0.2848 C.ar      1 <0>        -0.0738
      7 C6          0.2614    2.2174    0.5319 C.ar      1 <0>        -0.1251
      8 C7         -1.0117    1.7028    0.3706 C.ar      1 <0>        -0.1109
      9 C8         -2.0402    2.5266   -0.0775 C.ar      1 <0>        -0.1061
     10 C9         -1.7528    3.8258   -0.3463 C.ar      1 <0>        -0.0879
     11 C10        -2.7532    4.8404   -0.9520 C.3       1 <0>         0.0270
     12 C11        -2.7203    5.9320    0.1157 C.ar      1 <0>        -0.0845
     13 C12        -1.4575    6.4226    0.4929 C.ar      1 <0>        -0.0743
     14 C13        -1.3453    7.3629    1.4819 C.ar      1 <0>        -0.0987
     15 C14        -2.4931    7.8191    2.1228 C.ar      1 <0>        -0.1117
     16 C15        -3.7339    7.3485    1.7350 C.ar      1 <0>        -0.1172
     17 C16        -3.8556    6.4003    0.7301 C.ar      1 <0>        -0.0964
     18 C17        -1.8941    5.2167   -2.1272 C.3       1 <0>        -0.1371
     19 H1         -1.2555    4.3514   -2.3055 H         1 <0>         0.1255
     20 C18        -0.8912    6.3142   -1.6927 C.3       1 <0>        -0.1206
     21 H2         -1.4502    7.2365   -1.5347 H         1 <0>         0.1314
     22 C19        -0.1342    6.4245   -2.9681 C.2       1 <0>         0.5511
     23 O2          1.0525    6.6245   -3.1142 O.2       1 <0>        -0.4207
     24 N1         -1.0862    6.2481   -3.9430 N.am      1 <0>        -0.5502
     25 C20        -2.2592    5.7136   -3.4614 C.2       1 <0>         0.5639
     26 O3         -3.3396    5.6638   -4.0089 O.2       1 <0>        -0.4398
     27 C21        -0.8831    6.5784   -5.2907 C.ar      1 <0>         0.1325
     28 C22         0.3285    7.1194   -5.6990 C.ar      1 <0>        -0.1307
     29 C23         0.5284    7.4382   -7.0279 C.ar      1 <0>        -0.0853
     30 C24        -0.4821    7.2297   -7.9501 C.ar      1 <0>        -0.0472
     31 C25        -1.6929    6.6963   -7.5445 C.ar      1 <0>        -0.0848
     32 C26        -1.8953    6.3703   -6.2177 C.ar      1 <0>        -0.1317
     33 Cl1        -0.2307    7.6386   -9.6184 Cl        1 <0>        -0.0643
     34 O4          2.0685    5.7366   -0.9169 O.3       1 <0>        -0.3678
     35 C27         3.3557    6.3564   -0.9482 C.3       1 <0>         0.0305
     36 H3          3.3075    7.0404    1.2094 H         1 <0>         0.0530
     37 H4          2.0012    8.0282    1.9066 H         1 <0>         0.0455
     38 H5          2.7042    6.6905    2.8470 H         1 <0>         0.0935
     39 H6          1.1623    7.4683   -0.2471 H         1 <0>         0.0675
     40 H7          1.5223    3.9509    0.4342 H         1 <0>         0.1397
     41 H8          1.0603    1.5669    0.8561 H         1 <0>         0.1220
     42 H9         -1.2066    0.6629    0.5875 H         1 <0>         0.1256
     43 H10        -3.0419    2.1433   -0.2039 H         1 <0>         0.1320
     44 H11        -3.7445    4.4599   -1.1984 H         1 <0>         0.1345
     45 H12        -0.3694    7.7240    1.7709 H         1 <0>         0.1263
     46 H13        -2.4148    8.5406    2.9225 H         1 <0>         0.1274
     47 H14        -4.6215    7.7245    2.2219 H         1 <0>         0.1253
     48 H15        -4.8285    6.0361    0.4351 H         1 <0>         0.1322
     49 H16         1.1157    7.2867   -4.9787 H         1 <0>         0.1568
     50 H17         1.4724    7.8546   -7.3468 H         1 <0>         0.1417
     51 H18        -2.4800    6.5346   -8.2660 H         1 <0>         0.1423
     52 H19        -2.8403    5.9540   -5.9016 H         1 <0>         0.1575
     53 H20         3.8991    6.1116   -0.0356 H         1 <0>         0.0473
     54 H21         3.9131    5.9929   -1.8115 H         1 <0>         0.0890
     55 H22         3.2368    7.4374   -1.0214 H         1 <0>         0.0439
@<TRIPOS>BOND
     1    1    2 1
     2    1   36 1
     3    1   37 1
     4    1   38 1
     5    2    3 1
     6    3    4 1
     7    3   34 1
     8    3   39 1
     9    4   13 1
    10    4   20 1
    11    4    5 1
    12    5   10 ar
    13    5    6 ar
    14    6    7 ar
    15    6   40 1
    16    7    8 ar
    17    7   41 1
    18    8    9 ar
    19    8   42 1
    20    9   10 ar
    21    9   43 1
    22   10   11 1
    23   11   12 1
    24   11   18 1
    25   11   44 1
    26   12   17 ar
    27   12   13 ar
    28   13   14 ar
    29   14   15 ar
    30   14   45 1
    31   15   16 ar
    32   15   46 1
    33   16   17 ar
    34   16   47 1
    35   17   48 1
    36   18   19 1
    37   18   25 1
    38   18   20 1
    39   20   21 1
    40   20   22 1
    41   22   23 2
    42   22   24 am
    43   24   25 am
    44   24   27 1
    45   25   26 2
    46   27   32 ar
    47   27   28 ar
    48   28   29 ar
    49   28   49 1
    50   29   30 ar
    51   29   50 1
    52   30   31 ar
    53   30   33 1
    54   31   32 ar
    55   31   51 1
    56   32   52 1
    57   34   35 1
    58   35   53 1
    59   35   54 1
    60   35   55 1
@<TRIPOS>MOLECULE
ZINC20080028
   56    59     0     0     0
SMALL
USER_CHARGES
1-benzhydryl-4-(4-chloro-3-methoxy-phenyl)sulfonyl-piperazine
@<TRIPOS>ATOM
      1 C1          1.3394   -0.7324    7.4182 C.3       1 <0>         0.0153
      2 O1          1.9769   -1.9306    6.9712 O.3       1 <0>        -0.3007
      3 C2          1.2657   -2.7335    6.1363 C.ar      1 <0>         0.1211
      4 C3         -0.0190   -2.3755    5.7553 C.ar      1 <0>        -0.1010
      5 C4         -0.7398   -3.1929    4.9062 C.ar      1 <0>        -0.6383
      6 C5         -0.1840   -4.3701    4.4401 C.ar      1 <0>        -0.0452
      7 C6          1.0982   -4.7274    4.8136 C.ar      1 <0>        -0.0919
      8 C7          1.8240   -3.9131    5.6630 C.ar      1 <0>        -0.0187
      9 Cl1         3.4318   -4.3649    6.1368 Cl        1 <0>        -0.0381
     10 S1         -2.3721   -2.7385    4.4226 S.o2      1 <0>         2.6896
     11 O2         -2.8674   -1.8691    5.4316 O.2       1 <0>        -0.9489
     12 O3         -3.0373   -3.9404    4.0588 O.2       1 <0>        -0.9455
     13 N1         -2.2397   -1.8342    3.0417 N.pl3     1 <0>        -0.9957
     14 C8         -2.2655   -2.4717    1.7165 C.3       1 <0>         0.1245
     15 C9         -1.0535   -1.9818    0.9170 C.3       1 <0>         0.0383
     16 N2         -1.0436   -0.5129    0.8996 N.3       1 <0>        -0.5244
     17 C10        -0.8876    0.0350    2.2536 C.3       1 <0>         0.0371
     18 C11        -2.0928   -0.3723    3.1079 C.3       1 <0>         0.1251
     19 C12         0.0021   -0.0041    0.0020 C.3       1 <0>         0.1688
     20 C13        -0.0184    1.5028    0.0103 C.ar      1 <0>        -0.0784
     21 C14        -1.2248    2.1776    0.0197 C.ar      1 <0>        -0.0910
     22 C15        -1.2435    3.5598    0.0322 C.ar      1 <0>        -0.1230
     23 C16        -0.0559    4.2672    0.0251 C.ar      1 <0>        -0.1175
     24 C17         1.1505    3.5924    0.0100 C.ar      1 <0>        -0.1203
     25 C18         1.1693    2.2102    0.0028 C.ar      1 <0>        -0.1129
     26 C19        -0.2512   -0.5022   -1.3976 C.ar      1 <0>        -0.0778
     27 C20        -1.5421   -0.5567   -1.8888 C.ar      1 <0>        -0.0894
     28 C21        -1.7740   -1.0091   -3.1743 C.ar      1 <0>        -0.1231
     29 C22        -0.7158   -1.4164   -3.9650 C.ar      1 <0>        -0.1175
     30 C23         0.5746   -1.3672   -3.4718 C.ar      1 <0>        -0.1205
     31 C24         0.8070   -0.9099   -2.1881 C.ar      1 <0>        -0.1130
     32 H1          2.0206   -0.1805    8.0825 H         1 <0>         0.1116
     33 H2          0.4205   -0.9884    7.9660 H         1 <0>         0.0643
     34 H3          1.0864   -0.1059    6.5501 H         1 <0>         0.0609
     35 H4         -0.4557   -1.4585    6.1224 H         1 <0>         0.1526
     36 H5         -0.7510   -5.0095    3.7797 H         1 <0>         0.1515
     37 H6          1.5317   -5.6453    4.4449 H         1 <0>         0.1520
     38 H7         -2.2205   -3.5644    1.8344 H         1 <0>         0.0959
     39 H8         -3.1946   -2.1971    1.1955 H         1 <0>         0.0883
     40 H9         -0.1303   -2.3503    1.3880 H         1 <0>         0.0412
     41 H10        -1.1162   -2.3615   -0.1135 H         1 <0>         0.0957
     42 H11         0.0340   -0.3607    2.7053 H         1 <0>         0.0397
     43 H12        -0.8282    1.1321    2.2006 H         1 <0>         0.0965
     44 H13        -3.0052    0.1057    2.7218 H         1 <0>         0.0885
     45 H14        -1.9327   -0.0668    4.1524 H         1 <0>         0.0932
     46 H15         0.9730   -0.3720    0.3653 H         1 <0>         0.0573
     47 H16        -2.1527    1.6249    0.0211 H         1 <0>         0.1308
     48 H17        -2.1860    4.0870    0.0437 H         1 <0>         0.1221
     49 H18        -0.0705    5.3471    0.0311 H         1 <0>         0.1206
     50 H19         2.0784    4.1450    0.0041 H         1 <0>         0.1212
     51 H20         2.1118    1.6830   -0.0091 H         1 <0>         0.1176
     52 H21        -2.3693   -0.2423   -1.2696 H         1 <0>         0.1306
     53 H22        -2.7822   -1.0478   -3.5595 H         1 <0>         0.1218
     54 H23        -0.8973   -1.7733   -4.9681 H         1 <0>         0.1204
     55 H24         1.4013   -1.6858   -4.0894 H         1 <0>         0.1210
     56 H25         1.8152   -0.8715   -1.8028 H         1 <0>         0.1174
@<TRIPOS>BOND
     1    1    2 1
     2    1   32 1
     3    1   33 1
     4    1   34 1
     5    2    3 1
     6    3    8 ar
     7    3    4 ar
     8    4    5 ar
     9    4   35 1
    10    5    6 ar
    11    5   10 1
    12    6    7 ar
    13    6   36 1
    14    7    8 ar
    15    7   37 1
    16    8    9 1
    17   10   11 2
    18   10   12 2
    19   10   13 1
    20   13   18 1
    21   13   14 1
    22   14   15 1
    23   14   38 1
    24   14   39 1
    25   15   16 1
    26   15   40 1
    27   15   41 1
    28   16   17 1
    29   16   19 1
    30   17   18 1
    31   17   42 1
    32   17   43 1
    33   18   44 1
    34   18   45 1
    35   19   20 1
    36   19   26 1
    37   19   46 1
    38   20   25 ar
    39   20   21 ar
    40   21   22 ar
    41   21   47 1
    42   22   23 ar
    43   22   48 1
    44   23   24 ar
    45   23   49 1
    46   24   25 ar
    47   24   50 1
    48   25   51 1
    49   26   31 ar
    50   26   27 ar
    51   27   28 ar
    52   27   52 1
    53   28   29 ar
    54   28   53 1
    55   29   30 ar
    56   29   54 1
    57   30   31 ar
    58   30   55 1
    59   31   56 1
@<TRIPOS>MOLECULE
ZINC09111163
   58    63     0     0     0
SMALL
USER_CHARGES

@<TRIPOS>ATOM
      1 C1         -0.0167    1.3781    0.0096 C.ar      1 <0>        -0.1195
      2 C2          1.1709    2.0855    0.0021 C.ar      1 <0>        -0.1180
      3 C3          2.3773    1.4107   -0.0130 C.ar      1 <0>        -0.1118
      4 C4          2.3960    0.0285   -0.0201 C.ar      1 <0>        -0.0856
      5 C5          1.2084   -0.6789   -0.0117 C.ar      1 <0>        -0.1124
      6 C6          0.0021   -0.0041    0.0020 C.ar      1 <0>        -0.1177
      7 C7          3.7112   -0.7071   -0.0376 C.3       1 <0>        -0.0919
      8 C8          4.1714   -0.9633    1.3989 C.3       1 <0>         0.1101
      9 N1          5.4498   -1.6784    1.3820 N.am      1 <0>        -0.5722
     10 C9          5.5364   -3.0183    1.3686 C.2       1 <0>         0.5376
     11 O1          4.6126   -3.7910    1.5069 O.2       1 <0>        -0.4491
     12 C10         6.9853   -3.3984    1.1505 C.3       1 <0>        -0.1299
     13 H1          7.1932   -3.6960    0.1227 H         1 <0>         0.1572
     14 C11         7.4324   -4.4440    2.1687 C.3       1 <0>         0.1939
     15 H2          8.2663   -5.0177    1.7642 H         1 <0>         0.0973
     16 C12         6.3151   -5.3754    2.5521 C.2       1 <0>        -0.1719
     17 C13         6.2507   -5.8753    3.7835 C.2       1 <0>        -0.0870
     18 C14         7.2648   -5.5268    4.7977 C.ar      1 <0>        -0.1071
     19 C15         7.4361   -6.2771    5.9552 C.ar      1 <0>        -0.0714
     20 C16         8.3902   -5.8977    6.8794 C.ar      1 <0>        -0.1563
     21 C17         9.1752   -4.7774    6.6656 C.ar      1 <0>        -0.0798
     22 C18         9.0195   -4.0229    5.5144 C.ar      1 <0>        -0.1677
     23 C19         8.0771   -4.3950    4.5824 C.ar      1 <0>         0.2294
     24 N2          7.8660   -3.7237    3.3810 N.pl3     1 <0>        -0.6199
     25 C20         7.9496   -2.2967    3.1016 C.3       1 <0>         0.1247
     26 H3          8.9338   -1.9224    3.3834 H         1 <0>         0.1162
     27 C21         7.7282   -2.0923    1.5700 C.3       1 <0>        -0.1164
     28 H4          8.6429   -1.9005    1.0091 H         1 <0>         0.1603
     29 C22         6.6362   -1.0513    1.3726 C.2       1 <0>         0.5240
     30 O2          6.8078    0.1407    1.2337 O.2       1 <0>        -0.4444
     31 C23         6.8841   -1.5622    3.8738 C.2       1 <0>         0.3597
     32 O3          5.9777   -2.1784    4.3925 O.2       1 <0>        -0.4117
     33 C24         6.9437   -0.0970    3.9984 C.ar      1 <0>        -0.1844
     34 C25         7.9843    0.6178    3.3967 C.ar      1 <0>        -0.0444
     35 C26         8.0329    1.9905    3.5176 C.ar      1 <0>        -0.1258
     36 C27         7.0553    2.6610    4.2320 C.ar      1 <0>        -0.0793
     37 C28         6.0225    1.9606    4.8308 C.ar      1 <0>        -0.1353
     38 C29         5.9568    0.5883    4.7142 C.ar      1 <0>        -0.0564
     39 H5         -0.9591    1.9053    0.0259 H         1 <0>         0.1226
     40 H6          1.1563    3.1654    0.0076 H         1 <0>         0.1232
     41 H7          3.3051    1.9634   -0.0196 H         1 <0>         0.1224
     42 H8          1.2231   -1.7588   -0.0176 H         1 <0>         0.1224
     43 H9         -0.9258   -0.5567    0.0082 H         1 <0>         0.1234
     44 H10         3.5884   -1.6586   -0.5549 H         1 <0>         0.0777
     45 H11         4.4573   -0.1052   -0.5563 H         1 <0>         0.0806
     46 H12         4.2941   -0.0118    1.9163 H         1 <0>         0.0933
     47 H13         3.4252   -1.5652    1.9176 H         1 <0>         0.0964
     48 H14         5.5619   -5.6397    1.8246 H         1 <0>         0.1400
     49 H15         5.4450   -6.5454    4.0446 H         1 <0>         0.1221
     50 H16         6.8272   -7.1517    6.1307 H         1 <0>         0.1257
     51 H17         8.5249   -6.4808    7.7784 H         1 <0>         0.1226
     52 H18         9.9126   -4.4900    7.4005 H         1 <0>         0.1250
     53 H19         9.6326   -3.1493    5.3493 H         1 <0>         0.1208
     54 H20         8.7480    0.0960    2.8391 H         1 <0>         0.1260
     55 H21         8.8360    2.5440    3.0538 H         1 <0>         0.1295
     56 H22         7.0988    3.7362    4.3231 H         1 <0>         0.1274
     57 H23         5.2636    2.4909    5.3869 H         1 <0>         0.1281
     58 H24         5.1478    0.0436    5.1781 H         1 <0>         0.1279
@<TRIPOS>BOND
     1    1    6 ar
     2    1    2 ar
     3    1   39 1
     4    2    3 ar
     5    2   40 1
     6    3    4 ar
     7    3   41 1
     8    4    5 ar
     9    4    7 1
    10    5    6 ar
    11    5   42 1
    12    6   43 1
    13    7    8 1
    14    7   44 1
    15    7   45 1
    16    8    9 1
    17    8   46 1
    18    8   47 1
    19    9   29 am
    20    9   10 am
    21   10   11 2
    22   10   12 1
    23   12   13 1
    24   12   27 1
    25   12   14 1
    26   14   15 1
    27   14   24 1
    28   14   16 1
    29   16   17 2
    30   16   48 1
    31   17   18 1
    32   17   49 1
    33   18   23 ar
    34   18   19 ar
    35   19   20 ar
    36   19   50 1
    37   20   21 ar
    38   20   51 1
    39   21   22 ar
    40   21   52 1
    41   22   23 ar
    42   22   53 1
    43   23   24 1
    44   24   25 1
    45   25   26 1
    46   25   27 1
    47   25   31 1
    48   27   28 1
    49   27   29 1
    50   29   30 2
    51   31   32 2
    52   31   33 1
    53   33   38 ar
    54   33   34 ar
    55   34   35 ar
    56   34   54 1
    57   35   36 ar
    58   35   55 1
    59   36   37 ar
    60   36   56 1
    61   37   38 ar
    62   37   57 1
    63   38   58 1
@<TRIPOS>MOLECULE
ZINC57838470
   43    45     0     0     0
SMALL
USER_CHARGES

@<TRIPOS>ATOM
      1 C1          0.1970    1.5311   -0.2456 C.3       1 <0>        -0.0879
      2 C2          0.1265    0.0265   -0.2937 C.2       1 <0>         0.1389
      3 C3         -0.2102   -0.7532   -1.4245 C.2       1 <0>        -0.2788
      4 C4         -0.1551   -2.0789   -1.0367 C.2       1 <0>         0.1792
      5 N1          0.1972   -2.1024    0.2638 N.pl3     1 <0>        -0.2970
      6 N2          0.3710   -0.7840    0.6995 N.2       1 <0>        -0.2774
      7 C5          0.3662   -3.2532    1.0463 C.ar      1 <0>         0.1338
      8 C6          1.0158   -4.3621    0.5207 C.ar      1 <0>        -0.0973
      9 C7          1.1812   -5.4948    1.2932 C.ar      1 <0>        -0.1336
     10 C8          0.6998   -5.5251    2.5913 C.ar      1 <0>         0.1063
     11 C9          0.0513   -4.4203    3.1172 C.ar      1 <0>        -0.1357
     12 C10        -0.1107   -3.2835    2.3500 C.ar      1 <0>        -0.0684
     13 F1          0.8626   -6.6342    3.3455 F         1 <0>        -0.1317
     14 C11        -0.4374   -3.2762   -1.9071 C.3       1 <0>        -0.1262
     15 C12        -0.5551   -0.2484   -2.7618 C.2       1 <0>         0.2028
     16 C13        -1.7539   -0.5454   -3.3070 C.2       1 <0>        -0.6482
     17 C14        -2.0111   -0.2381   -4.6818 C.1       1 <0>         0.2645
     18 N3         -2.2152    0.0057   -5.7724 N.1       1 <0>        -0.3900
     19 S1         -3.0019   -1.3114   -2.3270 S.o2      1 <0>         2.5794
     20 O1         -3.4366   -2.4573   -3.0461 O.2       1 <0>        -0.9233
     21 O2         -2.4878   -1.3914   -1.0047 O.2       1 <0>        -0.8912
     22 C15        -4.3713   -0.2041   -2.2688 C.ar      1 <0>        -0.6485
     23 C16        -5.5712   -0.5573   -2.8570 C.ar      1 <0>        -0.0023
     24 C17        -6.6462    0.3121   -2.8113 C.ar      1 <0>        -0.0529
     25 C18        -6.5203    1.5353   -2.1768 C.ar      1 <0>        -0.0397
     26 C19        -5.3208    1.8884   -1.5887 C.ar      1 <0>        -0.1134
     27 C20        -4.2472    1.0164   -1.6295 C.ar      1 <0>         0.0500
     28 Cl1        -2.7423    1.4570   -0.8845 Cl        1 <0>        -0.0208
     29 Cl2        -8.1531   -0.1313   -3.5506 Cl        1 <0>        -0.0411
     30 H1          1.2272    1.8517   -0.4010 H         1 <0>         0.0930
     31 H2         -0.4357    1.9497   -1.0283 H         1 <0>         0.0740
     32 H3         -0.1493    1.8802    0.7271 H         1 <0>         0.0851
     33 H4          1.3910   -4.3389   -0.4917 H         1 <0>         0.1427
     34 H5          1.6861   -6.3576    0.8845 H         1 <0>         0.1491
     35 H6         -0.3241   -4.4461    4.1296 H         1 <0>         0.1482
     36 H7         -0.6123   -2.4204    2.7621 H         1 <0>         0.1469
     37 H8          0.4999   -3.6656   -2.3045 H         1 <0>         0.1024
     38 H9         -0.9295   -4.0479   -1.3151 H         1 <0>         0.0976
     39 H10        -1.0868   -2.9813   -2.7313 H         1 <0>         0.0793
     40 H11         0.1506    0.3601   -3.3079 H         1 <0>         0.1532
     41 H12        -5.6693   -1.5118   -3.3526 H         1 <0>         0.1647
     42 H13        -7.3595    2.2142   -2.1414 H         1 <0>         0.1562
     43 H14        -5.2225    2.8433   -1.0938 H         1 <0>         0.1578
@<TRIPOS>BOND
     1    1    2 1
     2    1   30 1
     3    1   31 1
     4    1   32 1
     5    2    6 2
     6    2    3 1
     7    3    4 2
     8    3   15 1
     9    4    5 1
    10    4   14 1
    11    5    6 1
    12    5    7 1
    13    7   12 ar
    14    7    8 ar
    15    8    9 ar
    16    8   33 1
    17    9   10 ar
    18    9   34 1
    19   10   11 ar
    20   10   13 1
    21   11   12 ar
    22   11   35 1
    23   12   36 1
    24   14   37 1
    25   14   38 1
    26   14   39 1
    27   15   16 2
    28   15   40 1
    29   16   17 1
    30   16   19 1
    31   17   18 3
    32   19   20 2
    33   19   21 2
    34   19   22 1
    35   22   27 ar
    36   22   23 ar
    37   23   24 ar
    38   23   41 1
    39   24   25 ar
    40   24   29 1
    41   25   26 ar
    42   25   42 1
    43   26   27 ar
    44   26   43 1
    45   27   28 1
@<TRIPOS>MOLECULE
ZINC11941170
   43    46     0     0     0
SMALL
USER_CHARGES
7,8-dimethyl-4-[(1-phenyl-1,2,4-triazol-3-yl)sulfanylmethyl]chromen-2-one
@<TRIPOS>ATOM
      1 C1          5.9788    2.4948   -0.0422 C.3       1 <0>        -0.1250
      2 C2          4.7193    1.6673   -0.0341 C.ar      1 <0>        -0.0303
      3 C3          4.8073    0.2826   -0.0424 C.ar      1 <0>        -0.1333
      4 C4          3.6761   -0.4843   -0.0361 C.ar      1 <0>        -0.0557
      5 C5          2.4210    0.1319   -0.0203 C.ar      1 <0>        -0.1509
      6 C6          1.1887   -0.6624   -0.0128 C.2       1 <0>         0.0371
      7 C7          0.0021   -0.0041    0.0020 C.2       1 <0>        -0.2205
      8 C8         -0.0171    1.4076    0.0098 C.2       1 <0>         0.5106
      9 O1         -1.0884    1.9865    0.0179 O.2       1 <0>        -0.4554
     10 O2          1.1153    2.1278    0.0028 O.3       1 <0>        -0.2655
     11 C9          2.3278    1.5345   -0.0119 C.ar      1 <0>         0.1521
     12 C10         3.4909    2.2941   -0.0189 C.ar      1 <0>        -0.0992
     13 C11         3.4106    3.7990   -0.0106 C.3       1 <0>        -0.1163
     14 C12         1.2383   -2.1686   -0.0219 C.3       1 <0>        -0.0863
     15 S1          1.2422   -2.7632   -1.7357 S.3       1 <0>         0.0531
     16 C13         1.3016   -4.5171   -1.5782 C.2       1 <0>         0.2000
     17 N1          1.3403   -5.1942   -0.4257 N.2       1 <0>        -0.5335
     18 C14         1.3747   -6.4798   -0.6681 C.2       1 <0>         0.2757
     19 N2          1.3683   -6.6560   -2.0031 N.pl3     1 <0>        -0.3225
     20 N3          1.3207   -5.3734   -2.5733 N.2       1 <0>        -0.2810
     21 C15         1.4017   -7.8779   -2.6882 C.ar      1 <0>         0.1430
     22 C16         1.4529   -9.0713   -1.9802 C.ar      1 <0>        -0.1320
     23 C17         1.4803  -10.2742   -2.6583 C.ar      1 <0>        -0.0927
     24 C18         1.4679  -10.2905   -4.0410 C.ar      1 <0>        -0.1185
     25 C19         1.4222   -9.1036   -4.7490 C.ar      1 <0>        -0.0954
     26 C20         1.3893   -7.8976   -4.0766 C.ar      1 <0>        -0.1096
     27 H1          6.2924    2.6891    0.9835 H         1 <0>         0.0815
     28 H2          6.7660    1.9530   -0.5664 H         1 <0>         0.0749
     29 H3          5.7888    3.4407   -0.5494 H         1 <0>         0.0787
     30 H4          5.7770   -0.1928   -0.0542 H         1 <0>         0.1365
     31 H5          3.7513   -1.5616   -0.0426 H         1 <0>         0.1379
     32 H6         -0.9248   -0.5583    0.0082 H         1 <0>         0.1692
     33 H7          3.4008    4.1566    1.0191 H         1 <0>         0.0770
     34 H8          4.2751    4.2119   -0.5304 H         1 <0>         0.0779
     35 H9          2.4977    4.1169   -0.5143 H         1 <0>         0.0746
     36 H10         2.1446   -2.5053    0.4816 H         1 <0>         0.1178
     37 H11         0.3656   -2.5640    0.4979 H         1 <0>         0.1205
     38 H12         1.4074   -7.2637    0.0741 H         1 <0>         0.2277
     39 H13         1.4671   -9.0590   -0.9004 H         1 <0>         0.1326
     40 H14         1.5160  -11.2029   -2.1082 H         1 <0>         0.1375
     41 H15         1.4936  -11.2323   -4.5691 H         1 <0>         0.1329
     42 H16         1.4127   -9.1196   -5.8288 H         1 <0>         0.1359
     43 H17         1.3537   -6.9709   -4.6301 H         1 <0>         0.1390
@<TRIPOS>BOND
     1    1    2 1
     2    1   27 1
     3    1   28 1
     4    1   29 1
     5    2   12 ar
     6    2    3 ar
     7    3    4 ar
     8    3   30 1
     9    4    5 ar
    10    4   31 1
    11    5   11 ar
    12    5    6 1
    13    6    7 2
    14    6   14 1
    15    7    8 1
    16    7   32 1
    17    8    9 2
    18    8   10 1
    19   10   11 1
    20   11   12 ar
    21   12   13 1
    22   13   33 1
    23   13   34 1
    24   13   35 1
    25   14   15 1
    26   14   36 1
    27   14   37 1
    28   15   16 1
    29   16   20 2
    30   16   17 1
    31   17   18 2
    32   18   19 1
    33   18   38 1
    34   19   20 1
    35   19   21 1
    36   21   26 ar
    37   21   22 ar
    38   22   23 ar
    39   22   39 1
    40   23   24 ar
    41   23   40 1
    42   24   25 ar
    43   24   41 1
    44   25   26 ar
    45   25   42 1
    46   26   43 1
@<TRIPOS>MOLECULE
ZINC19522253
   47    50     0     0     0
SMALL
USER_CHARGES
[(2S)-2-[5-ethyl-7-(trifluoromethyl)pyrazolo[1,5-a]pyrimidin-2-yl]pyrrolidin-1-yl]-[(1S,2S)-2-methylcyclopropyl]methanone
@<TRIPOS>ATOM
      1 C1         -6.6158   -3.5190   -1.9803 C.3       1 <0>        -0.1499
      2 C2         -6.2796   -2.4499   -3.0218 C.3       1 <0>        -0.0758
      3 C3         -4.8394   -2.0339   -2.8679 C.2       1 <0>         0.2043
      4 C4         -3.9712   -2.1034   -3.9671 C.2       1 <0>        -0.1533
      5 C5         -2.6776   -1.7272   -3.8194 C.2       1 <0>         0.0968
      6 N1         -2.2484   -1.2880   -2.6001 N.pl3     1 <0>        -0.3023
      7 C6         -3.1264   -1.2336   -1.5477 C.2       1 <0>         0.2600
      8 N2         -4.4031   -1.6078   -1.7061 N.2       1 <0>        -0.4319
      9 C7         -2.4149   -0.7604   -0.4531 C.2       1 <0>        -0.2339
     10 C8         -1.1124   -0.5270   -0.8673 C.2       1 <0>         0.1131
     11 N3         -1.0053   -0.8408   -2.1389 N.2       1 <0>        -0.2724
     12 C9          0.0021   -0.0041    0.0020 C.3       1 <0>         0.2154
     13 H1         -0.1159   -0.4360    1.0068 H         1 <0>         0.1050
     14 C10        -0.0189    1.5390    0.0105 C.3       1 <0>        -0.1227
     15 C11         1.4884    1.9071   -0.0019 C.3       1 <0>        -0.1299
     16 C12         2.0751    0.7854   -0.8949 C.3       1 <0>         0.0993
     17 N4          1.3027   -0.4200   -0.5430 N.am      1 <0>        -0.6123
     18 C13         1.7195   -1.6925   -0.6962 C.2       1 <0>         0.5358
     19 O1          0.9966   -2.6106   -0.3717 O.2       1 <0>        -0.5338
     20 C14         3.0838   -1.9745   -1.2708 C.3       1 <0>        -0.2182
     21 H2          3.0328   -1.1034   -1.9406 H         1 <0>         0.1339
     22 C15         4.1366   -2.5680   -0.3325 C.3       1 <0>        -0.1098
     23 C16         3.4994   -3.4396   -1.4176 C.3       1 <0>        -0.0839
     24 H3          2.9672   -4.4022   -1.4302 H         1 <0>         0.1365
     25 C17         4.3645   -3.8110   -2.6237 C.3       1 <0>        -0.1501
     26 C18        -1.7254   -1.7934   -4.9856 C.3       1 <0>         0.5208
     27 F1         -1.1098   -3.0493   -5.0144 F         1 <0>        -0.1591
     28 F2         -2.4318   -1.5928   -6.1764 F         1 <0>        -0.1592
     29 F3         -0.7506   -0.7993   -4.8486 F         1 <0>        -0.1524
     30 H4         -7.6671   -3.8226   -2.0927 H         1 <0>         0.0693
     31 H5         -6.4580   -3.1103   -0.9713 H         1 <0>         0.0697
     32 H6         -5.9640   -4.3927   -2.1281 H         1 <0>         0.0562
     33 H7         -6.4374   -2.8586   -4.0308 H         1 <0>         0.0937
     34 H8         -6.9314   -1.5762   -2.8740 H         1 <0>         0.0997
     35 H9         -4.3307   -2.4534   -4.9235 H         1 <0>         0.1800
     36 H10        -2.8060   -0.6010    0.5409 H         1 <0>         0.1694
     37 H11        -0.5509    1.9034   -0.8807 H         1 <0>         0.0807
     38 H12        -0.5338    1.8937    0.9155 H         1 <0>         0.0937
     39 H13         1.6166    2.9132   -0.4278 H         1 <0>         0.0907
     40 H14         1.8780    1.8920    1.0267 H         1 <0>         0.0831
     41 H15         1.9485    1.0557   -1.9536 H         1 <0>         0.0729
     42 H16         3.1455    0.6625   -0.6733 H         1 <0>         0.0849
     43 H17         5.0795   -2.0118   -0.4408 H         1 <0>         0.1078
     44 H18         3.7846   -2.4942    0.7071 H         1 <0>         0.0968
     45 H19         4.5842   -4.8886   -2.5994 H         1 <0>         0.0651
     46 H20         5.3063   -3.2438   -2.5879 H         1 <0>         0.0537
     47 H21         3.8249   -3.5676   -3.5508 H         1 <0>         0.0626
@<TRIPOS>BOND
     1    1    2 1
     2    1   30 1
     3    1   31 1
     4    1   32 1
     5    2    3 1
     6    2   33 1
     7    2   34 1
     8    3    8 2
     9    3    4 1
    10    4    5 2
    11    4   35 1
    12    5    6 1
    13    5   26 1
    14    6   11 1
    15    6    7 1
    16    7    8 1
    17    7    9 2
    18    9   10 1
    19    9   36 1
    20   10   11 2
    21   10   12 1
    22   12   13 1
    23   12   17 1
    24   12   14 1
    25   14   15 1
    26   14   37 1
    27   14   38 1
    28   15   16 1
    29   15   39 1
    30   15   40 1
    31   16   17 1
    32   16   41 1
    33   16   42 1
    34   17   18 am
    35   18   19 2
    36   18   20 1
    37   20   21 1
    38   20   23 1
    39   20   22 1
    40   22   23 1
    41   22   43 1
    42   22   44 1
    43   23   24 1
    44   23   25 1
    45   25   45 1
    46   25   46 1
    47   25   47 1
    48   26   27 1
    49   26   28 1
    50   26   29 1
@<TRIPOS>MOLECULE
ZINC37984251
   39    39     0     0     0
SMALL
USER_CHARGES

@<TRIPOS>ATOM
      1 C1         -0.0652    1.5364    0.0501 C.3       1 <0>        -0.1641
      2 C2         -0.0445    0.0067    0.0286 C.3       1 <0>         0.1318
      3 H1          0.4344   -0.3373   -0.8881 H         1 <0>         0.1101
      4 C3         -1.4785   -0.5236    0.0850 C.3       1 <0>        -0.1265
      5 C4         -1.4652   -2.0465   -0.0619 C.3       1 <0>        -0.0946
      6 C5         -2.8845   -2.5887    0.1189 C.3       1 <0>        -0.1481
      7 C6         -0.9499   -2.4202   -1.4532 C.3       1 <0>        -0.1537
      8 N1          0.7049   -0.4878    1.1863 N.am      1 <0>        -0.5969
      9 C7          0.2590   -0.1589    2.5424 C.3       1 <0>         0.0590
     10 C8          1.8046   -1.2453    1.0036 C.2       1 <0>         0.5649
     11 O1          2.2360   -1.4300   -0.1178 O.2       1 <0>        -0.5126
     12 C9          2.4859   -1.8514    2.1666 C.ar      1 <0>        -0.1140
     13 C10         1.7417   -2.2979    3.2604 C.ar      1 <0>        -0.0165
     14 C11         2.3823   -2.8630    4.3428 C.ar      1 <0>        -0.0423
     15 C12         3.7616   -2.9886    4.3470 C.ar      1 <0>         0.0327
     16 C13         4.5063   -2.5471    3.2647 C.ar      1 <0>        -0.0437
     17 C14         3.8754   -1.9850    2.1732 C.ar      1 <0>         0.0035
     18 Cl1         6.2349   -2.7074    3.2788 Cl        1 <0>        -0.0032
     19 Cl2         4.5608   -3.7013    5.7134 Cl        1 <0>         0.0286
     20 N2          1.5942   -3.3361    5.5030 N.pl3     1 <0>         0.0318
     21 O2          0.3901   -3.2268    5.5008 O.2       1 <0>        -0.1463
     22 O3          2.1545   -3.8319    6.4527 O.3       1 <0>        -0.1224
     23 H2          0.9564    1.9142    0.0099 H         1 <0>         0.0612
     24 H3         -0.6228    1.9043   -0.8112 H         1 <0>         0.0734
     25 H4         -0.5441    1.8805    0.9669 H         1 <0>         0.0612
     26 H5         -1.9280   -0.2547    1.0409 H         1 <0>         0.0695
     27 H6         -2.0601   -0.0854   -0.7260 H         1 <0>         0.0804
     28 H7         -0.8118   -2.4789    0.6959 H         1 <0>         0.0632
     29 H8         -3.5379   -2.1563   -0.6388 H         1 <0>         0.0558
     30 H9         -2.8750   -3.6736    0.0143 H         1 <0>         0.0550
     31 H10        -3.2516   -2.3225    1.1101 H         1 <0>         0.0545
     32 H11        -1.6033   -1.9878   -2.2109 H         1 <0>         0.0553
     33 H12         0.0612   -2.0339   -1.5819 H         1 <0>         0.0618
     34 H13        -0.9404   -3.5051   -1.5578 H         1 <0>         0.0532
     35 H14        -0.4967   -0.8771    2.8606 H         1 <0>         0.0693
     36 H15         1.1086   -0.1994    3.2241 H         1 <0>         0.0731
     37 H16        -0.1666    0.8445    2.5516 H         1 <0>         0.0855
     38 H17         0.6661   -2.2003    3.2589 H         1 <0>         0.1779
     39 H18         4.4558   -1.6452    1.3282 H         1 <0>         0.1725
@<TRIPOS>BOND
     1    1    2 1
     2    1   23 1
     3    1   24 1
     4    1   25 1
     5    2    3 1
     6    2    4 1
     7    2    8 1
     8    4    5 1
     9    4   26 1
    10    4   27 1
    11    5    6 1
    12    5    7 1
    13    5   28 1
    14    6   29 1
    15    6   30 1
    16    6   31 1
    17    7   32 1
    18    7   33 1
    19    7   34 1
    20    8    9 1
    21    8   10 am
    22    9   35 1
    23    9   36 1
    24    9   37 1
    25   10   11 2
    26   10   12 1
    27   12   17 ar
    28   12   13 ar
    29   13   14 ar
    30   13   38 1
    31   14   15 ar
    32   14   20 1
    33   15   16 ar
    34   15   19 1
    35   16   17 ar
    36   16   18 1
    37   17   39 1
    38   20   21 2
    39   20   22 1
@<TRIPOS>MOLECULE
ZINC08088715
   53    54     0     0     0
SMALL
USER_CHARGES

@<TRIPOS>ATOM
      1 C1         -0.4996    1.4359    0.0439 C.3       1 <0>        -0.1305
      2 C2         -0.1051   -0.0182    0.0102 C.2       1 <0>        -0.0197
      3 C3          0.1060   -0.6764    1.1464 C.2       1 <0>        -0.2496
      4 C4          0.1249    0.0506    2.4250 C.2       1 <0>         0.5508
      5 O1         -0.0604    1.2524    2.4440 O.2       1 <0>        -0.5381
      6 N1          0.3476   -0.6151    3.5755 N.am      1 <0>        -0.6109
      7 C5          0.4867   -2.0782    3.5782 C.3       1 <0>         0.0938
      8 C6          1.8234   -2.4421    4.2364 C.3       1 <0>         0.1017
      9 N2          1.9319   -1.7180    5.5107 N.pl3     1 <0>        -0.9977
     10 C7          1.7927   -0.2549    5.5080 C.3       1 <0>         0.1040
     11 C8          0.4616    0.1095    4.8490 C.3       1 <0>         0.1006
     12 S1          2.2055   -2.5360    6.9243 S.o2      1 <0>         2.6895
     13 O2          1.7145   -1.7114    7.9723 O.2       1 <0>        -0.9515
     14 O3          1.7442   -3.8645    6.7206 O.2       1 <0>        -0.9523
     15 C9          3.9515   -2.6364    7.1385 C.ar      1 <0>        -0.6830
     16 C10         4.6515   -3.7078    6.6161 C.ar      1 <0>        -0.0176
     17 C11         6.0213   -3.7866    6.7841 C.ar      1 <0>        -0.1366
     18 C12         6.6912   -2.7937    7.4742 C.ar      1 <0>        -0.0112
     19 C13         5.9914   -1.7218    7.9959 C.ar      1 <0>        -0.1420
     20 C14         4.6221   -1.6409    7.8242 C.ar      1 <0>        -0.0168
     21 C15         8.1845   -2.8801    7.6583 C.3       1 <0>        -0.0391
     22 C16         8.8666   -2.9032    6.2890 C.3       1 <0>        -0.1400
     23 C17         8.6718   -1.6652    8.4504 C.3       1 <0>        -0.1480
     24 C18         8.5310   -4.1596    8.4224 C.3       1 <0>        -0.1411
     25 C19         0.0501   -0.7264   -1.3110 C.3       1 <0>        -0.1307
     26 H1          0.3942    2.0527    0.1378 H         1 <0>         0.0786
     27 H2         -1.0226    1.6920   -0.8775 H         1 <0>         0.0567
     28 H3         -1.1556    1.6147    0.8958 H         1 <0>         0.0941
     29 H4          0.2636   -1.7447    1.1302 H         1 <0>         0.1293
     30 H5         -0.3324   -2.5225    4.1435 H         1 <0>         0.0793
     31 H6          0.4707   -2.4490    2.5534 H         1 <0>         0.1036
     32 H7          1.8597   -3.5156    4.4215 H         1 <0>         0.1068
     33 H8          2.6447   -2.1534    3.5806 H         1 <0>         0.0779
     34 H9          1.8087    0.1160    6.5328 H         1 <0>         0.1067
     35 H10         2.6118    0.1894    4.9427 H         1 <0>         0.0766
     36 H11         0.4290    1.1831    4.6632 H         1 <0>         0.1077
     37 H12        -0.3593   -0.1755    5.5069 H         1 <0>         0.0755
     38 H13         4.1281   -4.4835    6.0769 H         1 <0>         0.1389
     39 H14         6.5681   -4.6240    6.3765 H         1 <0>         0.1324
     40 H15         6.5148   -0.9463    8.5354 H         1 <0>         0.1379
     41 H16         4.0759   -0.8015    8.2285 H         1 <0>         0.1391
     42 H17         8.6198   -1.9917    5.7447 H         1 <0>         0.0579
     43 H18         9.9467   -2.9657    6.4221 H         1 <0>         0.0640
     44 H19         8.5194   -3.7687    5.7247 H         1 <0>         0.0592
     45 H20         8.1858   -1.6488    9.4260 H         1 <0>         0.0612
     46 H21         9.7519   -1.7277    8.5836 H         1 <0>         0.0634
     47 H22         8.4250   -0.7537    7.9061 H         1 <0>         0.0608
     48 H23         8.1838   -5.0251    7.8580 H         1 <0>         0.0595
     49 H24         9.6110   -4.2221    8.5555 H         1 <0>         0.0642
     50 H25         8.0450   -4.1431    9.3979 H         1 <0>         0.0587
     51 H26         1.0788   -0.6276   -1.6575 H         1 <0>         0.0819
     52 H27        -0.1921   -1.7820   -1.1880 H         1 <0>         0.0712
     53 H28        -0.6242   -0.2818   -2.0429 H         1 <0>         0.0730
@<TRIPOS>BOND
     1    1    2 1
     2    1   26 1
     3    1   27 1
     4    1   28 1
     5    2    3 2
     6    2   25 1
     7    3    4 1
     8    3   29 1
     9    4    5 2
    10    4    6 am
    11    6   11 1
    12    6    7 1
    13    7    8 1
    14    7   30 1
    15    7   31 1
    16    8    9 1
    17    8   32 1
    18    8   33 1
    19    9   10 1
    20    9   12 1
    21   10   11 1
    22   10   34 1
    23   10   35 1
    24   11   36 1
    25   11   37 1
    26   12   13 2
    27   12   14 2
    28   12   15 1
    29   15   20 ar
    30   15   16 ar
    31   16   17 ar
    32   16   38 1
    33   17   18 ar
    34   17   39 1
    35   18   19 ar
    36   18   21 1
    37   19   20 ar
    38   19   40 1
    39   20   41 1
    40   21   22 1
    41   21   23 1
    42   21   24 1
    43   22   42 1
    44   22   43 1
    45   22   44 1
    46   23   45 1
    47   23   46 1
    48   23   47 1
    49   24   48 1
    50   24   49 1
    51   24   50 1
    52   25   51 1
    53   25   52 1
    54   25   53 1
@<TRIPOS>MOLECULE
ZINC00500901
   41    43     0     0     0
SMALL
USER_CHARGES

@<TRIPOS>ATOM
      1 C1         -0.0142    1.4980    0.0017 C.3       1 <0>        -0.0857
      2 C2          0.0054   -0.0088   -0.0021 C.2       1 <0>         0.1221
      3 N1         -0.0769   -0.7647   -1.0265 N.2       1 <0>        -0.2230
      4 N2         -0.0299   -2.1194   -0.7123 N.am      1 <0>        -0.4030
      5 C3          0.0930   -2.3060    0.6186 C.2       1 <0>         0.5051
      6 O1          0.1616   -3.3611    1.2131 O.2       1 <0>        -0.4764
      7 C4          0.1330   -0.9094    1.2087 C.3       1 <0>        -0.1437
      8 H1         -0.7049   -0.7582    1.8893 H         1 <0>         0.1500
      9 C5          1.4620   -0.6628    1.9255 C.3       1 <0>        -0.0032
     10 H2          1.4735    0.3485    2.3319 H         1 <0>         0.1286
     11 C6          2.5975   -0.8244    0.9480 C.ar      1 <0>        -0.1219
     12 C7          2.7821   -2.0298    0.2968 C.ar      1 <0>        -0.0906
     13 C8          3.8227   -2.1790   -0.6002 C.ar      1 <0>        -0.1401
     14 C9          4.6807   -1.1206   -0.8466 C.ar      1 <0>         0.1144
     15 C10         4.4949    0.0863   -0.1938 C.ar      1 <0>        -0.1476
     16 C11         3.4504    0.2347    0.6988 C.ar      1 <0>        -0.0659
     17 F1          5.6986   -1.2654   -1.7230 F         1 <0>        -0.1339
     18 C12         1.6221   -1.6719    3.0644 C.3       1 <0>         0.1183
     19 C13         2.8421   -1.3613    3.8273 C.1       1 <0>         0.2034
     20 N3          3.7836   -1.1217    4.4160 N.1       1 <0>        -0.3742
     21 C14         0.4532   -1.5952    3.9558 C.1       1 <0>         0.2030
     22 N4         -0.4489   -1.5361    4.6437 N.1       1 <0>        -0.3756
     23 C15        -0.1013   -3.1533   -1.6534 C.ar      1 <0>         0.1625
     24 C16        -0.0518   -4.4776   -1.2376 C.ar      1 <0>        -0.1512
     25 C17        -0.1224   -5.4952   -2.1686 C.ar      1 <0>        -0.0933
     26 C18        -0.2419   -5.1968   -3.5136 C.ar      1 <0>        -0.1330
     27 C19        -0.2915   -3.8794   -3.9309 C.ar      1 <0>        -0.0975
     28 C20        -0.2275   -2.8571   -3.0045 C.ar      1 <0>        -0.1268
     29 H3          1.0087    1.8747   -0.0057 H         1 <0>         0.0965
     30 H4         -0.5399    1.8568   -0.8831 H         1 <0>         0.0926
     31 H5         -0.5254    1.8525    0.8968 H         1 <0>         0.0941
     32 H6          2.1129   -2.8554    0.4894 H         1 <0>         0.1352
     33 H7          3.9669   -3.1209   -1.1085 H         1 <0>         0.1390
     34 H8          5.1637    0.9124   -0.3850 H         1 <0>         0.1423
     35 H9          3.3025    1.1774    1.2048 H         1 <0>         0.1406
     36 H10         1.6983   -2.6775    2.6509 H         1 <0>         0.1655
     37 H11         0.0422   -4.7113   -0.1874 H         1 <0>         0.1518
     38 H12        -0.0840   -6.5252   -1.8459 H         1 <0>         0.1306
     39 H13        -0.2962   -5.9945   -4.2397 H         1 <0>         0.1263
     40 H14        -0.3844   -3.6496   -4.9821 H         1 <0>         0.1296
     41 H15        -0.2708   -1.8285   -3.3306 H         1 <0>         0.1352
@<TRIPOS>BOND
     1    1    2 1
     2    1   29 1
     3    1   30 1
     4    1   31 1
     5    2    7 1
     6    2    3 2
     7    3    4 1
     8    4    5 am
     9    4   23 1
    10    5    6 2
    11    5    7 1
    12    7    8 1
    13    7    9 1
    14    9   10 1
    15    9   11 1
    16    9   18 1
    17   11   16 ar
    18   11   12 ar
    19   12   13 ar
    20   12   32 1
    21   13   14 ar
    22   13   33 1
    23   14   15 ar
    24   14   17 1
    25   15   16 ar
    26   15   34 1
    27   16   35 1
    28   18   19 1
    29   18   21 1
    30   18   36 1
    31   19   20 3
    32   21   22 3
    33   23   28 ar
    34   23   24 ar
    35   24   25 ar
    36   24   37 1
    37   25   26 ar
    38   25   38 1
    39   26   27 ar
    40   26   39 1
    41   27   28 ar
    42   27   40 1
    43   28   41 1
@<TRIPOS>MOLECULE
ZINC05537770
   46    49     0     0     0
SMALL
USER_CHARGES
benzyl-trimethyl-BLAHone
@<TRIPOS>ATOM
      1 C1         -4.7596   -0.1517    1.5164 C.3       1 <0>        -0.1162
      2 C2         -3.4574   -0.5008    2.1898 C.ar      1 <0>         0.2095
      3 C3         -3.4757   -0.9671    3.4988 C.ar      1 <0>        -0.2099
      4 C4         -2.2865   -1.2903    4.1156 C.ar      1 <0>         0.0705
      5 C5         -1.1048   -1.1269    3.3919 C.ar      1 <0>        -0.2648
      6 C6         -1.1618   -0.6434    2.0714 C.ar      1 <0>         0.3870
      7 N1         -2.3309   -0.3559    1.5229 N.ar      1 <0>        -0.5119
      8 N2          0.0219   -0.4998    1.3805 N.pl3     1 <0>        -0.5030
      9 C7          1.1956   -0.8052    1.9619 C.2       1 <0>         0.4354
     10 N3          1.3005   -1.2510    3.1826 N.2       1 <0>        -0.5920
     11 C8          0.2164   -1.4401    3.9606 C.2       1 <0>         0.5367
     12 O1          0.3266   -1.8573    5.1006 O.2       1 <0>        -0.4742
     13 C9          0.0021   -0.0041    0.0020 C.3       1 <0>         0.1420
     14 C10        -0.0184    1.5028    0.0103 C.ar      1 <0>        -0.1241
     15 C11        -1.2248    2.1776    0.0197 C.ar      1 <0>        -0.0872
     16 C12        -1.2435    3.5598    0.0322 C.ar      1 <0>        -0.1253
     17 C13        -0.0559    4.2672    0.0247 C.ar      1 <0>        -0.1070
     18 C14         1.1505    3.5924    0.0100 C.ar      1 <0>        -0.1229
     19 C15         1.1693    2.2102    0.0028 C.ar      1 <0>        -0.1025
     20 C16        -2.2451   -1.8115    5.5257 C.3       1 <0>        -0.1087
     21 C17        -3.5724   -1.5123    6.2265 C.3       1 <0>         0.1080
     22 O2         -4.6425   -1.9284    5.3705 O.3       1 <0>        -0.3632
     23 C18        -4.7925   -1.1037    4.2148 C.3       1 <0>         0.1097
     24 C19        -3.6842   -0.0105    6.4962 C.3       1 <0>        -0.1808
     25 C20        -3.6443   -2.2787    7.5488 C.3       1 <0>        -0.1378
     26 H1         -4.9932    0.8973    1.6988 H         1 <0>         0.0904
     27 H2         -4.6712   -0.3230    0.4435 H         1 <0>         0.0865
     28 H3         -5.5563   -0.7768    1.9197 H         1 <0>         0.0865
     29 H4          2.1002   -0.6737    1.3866 H         1 <0>         0.2085
     30 H5         -0.8878   -0.3767   -0.5053 H         1 <0>         0.1123
     31 H6          0.8920   -0.3525   -0.5222 H         1 <0>         0.1087
     32 H7         -2.1527    1.6249    0.0211 H         1 <0>         0.1333
     33 H8         -2.1860    4.0870    0.0434 H         1 <0>         0.1236
     34 H9         -0.0705    5.3471    0.0299 H         1 <0>         0.1238
     35 H10         2.0784    4.1450    0.0037 H         1 <0>         0.1257
     36 H11         2.1118    1.6830   -0.0091 H         1 <0>         0.1243
     37 H12        -2.0784   -2.8885    5.5094 H         1 <0>         0.1012
     38 H13        -1.4322   -1.3278    6.0673 H         1 <0>         0.1136
     39 H14        -5.1425   -0.1170    4.5183 H         1 <0>         0.0723
     40 H15        -5.5239   -1.5530    3.5431 H         1 <0>         0.1106
     41 H16        -4.6378    0.2019    6.9796 H         1 <0>         0.0701
     42 H17        -2.8687    0.3034    7.1478 H         1 <0>         0.0716
     43 H18        -3.6258    0.5333    5.5533 H         1 <0>         0.0588
     44 H19        -3.5575   -3.3477    7.3543 H         1 <0>         0.0670
     45 H20        -2.8289   -1.9601    8.1981 H         1 <0>         0.0756
     46 H21        -4.5977   -2.0742    8.0358 H         1 <0>         0.0682
@<TRIPOS>BOND
     1    1    2 1
     2    1   26 1
     3    1   27 1
     4    1   28 1
     5    2    7 ar
     6    2    3 ar
     7    3   23 1
     8    3    4 ar
     9    4    5 ar
    10    4   20 1
    11    5   11 1
    12    5    6 ar
    13    6    7 ar
    14    6    8 1
    15    8    9 1
    16    8   13 1
    17    9   10 2
    18    9   29 1
    19   10   11 1
    20   11   12 2
    21   13   14 1
    22   13   30 1
    23   13   31 1
    24   14   19 ar
    25   14   15 ar
    26   15   16 ar
    27   15   32 1
    28   16   17 ar
    29   16   33 1
    30   17   18 ar
    31   17   34 1
    32   18   19 ar
    33   18   35 1
    34   19   36 1
    35   20   21 1
    36   20   37 1
    37   20   38 1
    38   21   22 1
    39   21   24 1
    40   21   25 1
    41   22   23 1
    42   23   39 1
    43   23   40 1
    44   24   41 1
    45   24   42 1
    46   24   43 1
    47   25   44 1
    48   25   45 1
    49   25   46 1
@<TRIPOS>MOLECULE
ZINC17639403
   47    50     0     0     0
SMALL
USER_CHARGES
[(3S,5S)-3,5-dimethylpiperidine-1-carbonyl]-methyl-BLAHone
@<TRIPOS>ATOM
      1 C1          0.9310    4.1986    1.6171 C.3       1 <0>        -0.1107
      2 C2          1.7577    3.3616    0.6753 C.2       1 <0>         0.0243
      3 C3          1.4741    2.0034    0.5134 C.2       1 <0>        -0.2599
      4 C4          2.3050    1.3051   -0.3923 C.2       1 <0>         0.1259
      5 N1          2.1375    0.0141   -0.6335 N.2       1 <0>        -0.4995
      6 C5          1.1973   -0.6909   -0.0523 C.2       1 <0>         0.4162
      7 N2          0.3398   -0.1318    0.8386 N.am      1 <0>        -0.5411
      8 C6          0.4250    1.1822    1.1534 C.2       1 <0>         0.5653
      9 O1         -0.3533    1.6805    1.9470 O.2       1 <0>        -0.5052
     10 C7         -0.6105   -1.1359    1.3507 C.3       1 <0>         0.0887
     11 C8         -0.5517   -2.3110    0.3533 C.3       1 <0>        -0.1317
     12 C9          0.8727   -2.1640   -0.2244 C.3       1 <0>        -0.0753
     13 S1          3.4255    2.5568   -0.9657 S.3       1 <0>         0.1937
     14 C10         2.7843    3.9287   -0.0212 C.2       1 <0>        -0.2483
     15 C11         3.2468    5.3200    0.0012 C.2       1 <0>         0.6119
     16 O2          2.4413    6.2301   -0.0617 O.2       1 <0>        -0.5147
     17 N3          4.5640    5.5909    0.0913 N.am      1 <0>        -0.6012
     18 C12         5.0373    6.9775    0.2008 C.3       1 <0>         0.1167
     19 C13         5.9453    7.0877    1.4351 C.3       1 <0>        -0.1073
     20 H1          6.3796    8.0866    1.4784 H         1 <0>         0.0858
     21 C14         7.0640    6.0484    1.3326 C.3       1 <0>        -0.1108
     22 C15         6.4568    4.6439    1.3057 C.3       1 <0>        -0.1079
     23 H2          5.8678    4.4842    2.2088 H         1 <0>         0.0801
     24 C16         5.5542    4.5056    0.0756 C.3       1 <0>         0.1002
     25 C17         7.5773    3.6044    1.2363 C.3       1 <0>        -0.1475
     26 C18         5.1252    6.8321    2.7012 C.3       1 <0>        -0.1478
     27 H3          0.0866    4.6267    1.0769 H         1 <0>         0.0831
     28 H4          0.5627    3.5736    2.4306 H         1 <0>         0.0847
     29 H5          1.5457    5.0010    2.0250 H         1 <0>         0.0693
     30 H6         -0.3078   -1.4691    2.3434 H         1 <0>         0.0974
     31 H7         -1.6173   -0.7195    1.3833 H         1 <0>         0.1021
     32 H8         -1.3031   -2.1972   -0.4281 H         1 <0>         0.0941
     33 H9         -0.6676   -3.2654    0.8669 H         1 <0>         0.1119
     34 H10         0.8859   -2.4363   -1.2798 H         1 <0>         0.1204
     35 H11         1.5770   -2.7776    0.3373 H         1 <0>         0.1211
     36 H12         5.5991    7.2437   -0.6945 H         1 <0>         0.0727
     37 H13         4.1844    7.6471    0.3120 H         1 <0>         0.0966
     38 H14         7.7260    6.1413    2.1936 H         1 <0>         0.0690
     39 H15         7.6326    6.2158    0.4179 H         1 <0>         0.0668
     40 H16         5.0425    3.5436    0.1041 H         1 <0>         0.0879
     41 H17         6.1574    4.5743   -0.8297 H         1 <0>         0.0770
     42 H18         8.1667    3.7651    0.3336 H         1 <0>         0.0589
     43 H19         8.2192    3.7031    2.1117 H         1 <0>         0.0610
     44 H20         7.1443    2.6043    1.2143 H         1 <0>         0.0580
     45 H21         5.7725    6.9081    3.5749 H         1 <0>         0.0563
     46 H22         4.3286    7.5726    2.7737 H         1 <0>         0.0559
     47 H23         4.6902    5.8337    2.6569 H         1 <0>         0.0562
@<TRIPOS>BOND
     1    1    2 1
     2    1   27 1
     3    1   28 1
     4    1   29 1
     5    2   14 2
     6    2    3 1
     7    3    8 1
     8    3    4 2
     9    4    5 1
    10    4   13 1
    11    5    6 2
    12    6   12 1
    13    6    7 1
    14    7    8 am
    15    7   10 1
    16    8    9 2
    17   10   11 1
    18   10   30 1
    19   10   31 1
    20   11   12 1
    21   11   32 1
    22   11   33 1
    23   12   34 1
    24   12   35 1
    25   13   14 1
    26   14   15 1
    27   15   16 2
    28   15   17 am
    29   17   24 1
    30   17   18 1
    31   18   19 1
    32   18   36 1
    33   18   37 1
    34   19   20 1
    35   19   21 1
    36   19   26 1
    37   21   22 1
    38   21   38 1
    39   21   39 1
    40   22   23 1
    41   22   24 1
    42   22   25 1
    43   24   40 1
    44   24   41 1
    45   25   42 1
    46   25   43 1
    47   25   44 1
    48   26   45 1
    49   26   46 1
    50   26   47 1
@<TRIPOS>MOLECULE
ZINC17822820
   46    48     0     0     0
SMALL
USER_CHARGES

@<TRIPOS>ATOM
      1 C1         -0.0184    1.5028    0.0103 C.3       1 <0>        -0.1049
      2 C2          0.0021   -0.0041    0.0020 C.2       1 <0>        -0.0607
      3 C3          0.0059   -0.6770   -1.1598 C.2       1 <0>        -0.1643
      4 S1          0.0321   -2.3845   -0.6478 S.3       1 <0>         0.1393
      5 C4          0.0372   -2.1444    1.1102 C.2       1 <0>         0.1029
      6 C5          0.0240   -0.7448    1.2495 C.2       1 <0>        -0.2384
      7 C6          0.0292   -0.2565    2.5968 C.2       1 <0>         0.5609
      8 O1          0.0141    0.9415    2.8212 O.2       1 <0>        -0.5190
      9 N1          0.0506   -1.1417    3.6105 N.am      1 <0>        -0.5159
     10 C7          0.0676   -2.4796    3.3796 C.2       1 <0>         0.3944
     11 N2          0.0532   -2.9560    2.1634 N.2       1 <0>        -0.4875
     12 C8          0.0561   -0.6517    4.9911 C.3       1 <0>         0.0717
     13 C9         -1.3626   -0.5034    5.4772 C.2       1 <0>         0.5040
     14 O2         -2.2873   -0.7799    4.7427 O.2       1 <0>        -0.5240
     15 N3         -1.6039   -0.0636    6.7281 N.am      1 <0>        -0.6068
     16 C10        -0.4943    0.2810    7.6275 C.3       1 <0>         0.1070
     17 C11        -0.7102    1.7032    8.1543 C.3       1 <0>        -0.1095
     18 H1         -0.6434    2.4112    7.3283 H         1 <0>         0.0773
     19 C12        -2.0949    1.7994    8.7989 C.3       1 <0>        -0.1107
     20 C13        -3.1694    1.5047    7.7498 C.3       1 <0>        -0.1082
     21 H2         -3.0795    2.2146    6.9276 H         1 <0>         0.0745
     22 C14        -2.9816    0.0860    7.2163 C.3       1 <0>         0.1165
     23 C15        -4.5544    1.6341    8.3870 C.3       1 <0>        -0.1459
     24 C16         0.3623    2.0304    9.1953 C.3       1 <0>        -0.1469
     25 C17        -0.0090   -0.1219   -2.5608 C.3       1 <0>        -0.0676
     26 H3          1.0042    1.8801    0.0026 H         1 <0>         0.0718
     27 H4         -0.5455    1.8639   -0.8728 H         1 <0>         0.0675
     28 H5         -0.5286    1.8543    0.9071 H         1 <0>         0.0817
     29 H6          0.0850   -3.1622    4.2164 H         1 <0>         0.2148
     30 H7          0.5856   -1.3616    5.6265 H         1 <0>         0.1297
     31 H8          0.5569    0.3156    5.0313 H         1 <0>         0.1339
     32 H9         -0.4705   -0.4186    8.4631 H         1 <0>         0.0783
     33 H10         0.4475    0.2328    7.0810 H         1 <0>         0.0840
     34 H11        -2.1696    1.0739    9.6090 H         1 <0>         0.0671
     35 H12        -2.2413    2.8037    9.1965 H         1 <0>         0.0693
     36 H13        -3.6802   -0.0907    6.3986 H         1 <0>         0.0930
     37 H14        -3.1651   -0.6297    8.0176 H         1 <0>         0.0715
     38 H15        -4.6862    2.6472    8.7671 H         1 <0>         0.0609
     39 H16        -5.3193    1.4241    7.6395 H         1 <0>         0.0585
     40 H17        -4.6442    0.9233    9.2085 H         1 <0>         0.0581
     41 H18         1.3482    1.9590    8.7360 H         1 <0>         0.0588
     42 H19         0.2083    3.0423    9.5699 H         1 <0>         0.0616
     43 H20         0.2944    1.3228   10.0217 H         1 <0>         0.0588
     44 H21         1.0149    0.0265   -2.9037 H         1 <0>         0.0815
     45 H22        -0.5163   -0.8228   -3.2239 H         1 <0>         0.0763
     46 H23        -0.5366    0.8319   -2.5681 H         1 <0>         0.0847
@<TRIPOS>BOND
     1    1    2 1
     2    1   26 1
     3    1   27 1
     4    1   28 1
     5    2    6 1
     6    2    3 2
     7    3    4 1
     8    3   25 1
     9    4    5 1
    10    5   11 1
    11    5    6 2
    12    6    7 1
    13    7    8 2
    14    7    9 am
    15    9   10 1
    16    9   12 1
    17   10   11 2
    18   10   29 1
    19   12   13 1
    20   12   30 1
    21   12   31 1
    22   13   14 2
    23   13   15 am
    24   15   22 1
    25   15   16 1
    26   16   17 1
    27   16   32 1
    28   16   33 1
    29   17   18 1
    30   17   19 1
    31   17   24 1
    32   19   20 1
    33   19   34 1
    34   19   35 1
    35   20   21 1
    36   20   22 1
    37   20   23 1
    38   22   36 1
    39   22   37 1
    40   23   38 1
    41   23   39 1
    42   23   40 1
    43   24   41 1
    44   24   42 1
    45   24   43 1
    46   25   44 1
    47   25   45 1
    48   25   46 1
@<TRIPOS>MOLECULE
ZINC56018296
   48    51     0     0     0
SMALL
USER_CHARGES

@<TRIPOS>ATOM
      1 C1          1.2324   -0.6256   -0.1435 C.ar      1 <0>        -0.1259
      2 C2          2.4115    0.0917   -0.1932 C.ar      1 <0>        -0.1245
      3 C3          2.3803    1.4758   -0.2247 C.ar      1 <0>         0.0763
      4 C4          1.1672    2.1434   -0.2064 C.ar      1 <0>        -0.1230
      5 C5         -0.0142    1.4297   -0.1567 C.ar      1 <0>        -0.1258
      6 C6          0.0150    0.0419   -0.1255 C.ar      1 <0>         0.1523
      7 N1         -1.1817   -0.6836   -0.0755 N.am      1 <0>        -0.5515
      8 C7         -1.2671   -2.1466   -0.1546 C.3       1 <0>         0.0913
      9 C8         -2.7416   -2.4555   -0.4965 C.3       1 <0>        -0.1148
     10 C9         -3.4627   -1.2060    0.0599 C.3       1 <0>        -0.1501
     11 H1         -3.8125   -1.3883    1.0760 H         1 <0>         0.1391
     12 C10        -2.3994   -0.1298    0.0568 C.2       1 <0>         0.5278
     13 O1         -2.6145    1.0597    0.1565 O.2       1 <0>        -0.4937
     14 C11        -4.6148   -0.8210   -0.8321 C.2       1 <0>         0.5377
     15 O2         -4.8554   -1.4719   -1.8267 O.2       1 <0>        -0.5194
     16 N2         -5.3777    0.2467   -0.5244 N.am      1 <0>        -0.6018
     17 C12        -5.0666    1.1037    0.6336 C.3       1 <0>         0.0835
     18 C13        -6.3354    1.2817    1.4731 C.3       1 <0>         0.0431
     19 O3         -7.4181    1.6995    0.6346 O.3       1 <0>        -0.3725
     20 C14        -7.7482    0.7553   -0.3813 C.3       1 <0>         0.0806
     21 H2         -7.9672   -0.2081    0.0792 H         1 <0>         0.0618
     22 C15        -6.5493    0.6073   -1.3328 C.3       1 <0>         0.1180
     23 H3         -6.3645    1.5534   -1.8416 H         1 <0>         0.0828
     24 C16        -6.8598   -0.4810   -2.3582 C.3       1 <0>        -0.1101
     25 C17        -8.0859   -0.0582   -3.1735 C.3       1 <0>        -0.1281
     26 C18        -9.2852    0.1436   -2.2471 C.3       1 <0>        -0.1186
     27 C19        -8.9566    1.2122   -1.1953 C.3       1 <0>        -0.1099
     28 F1          3.5348    2.1757   -0.2729 F         1 <0>        -0.1384
     29 H4          1.2571   -1.7052   -0.1230 H         1 <0>         0.1374
     30 H5          3.3586   -0.4271   -0.2072 H         1 <0>         0.1419
     31 H6          1.1450    3.2229   -0.2307 H         1 <0>         0.1414
     32 H7         -0.9601    1.9508   -0.1417 H         1 <0>         0.1641
     33 H8         -0.6112   -2.5208   -0.9407 H         1 <0>         0.0953
     34 H9         -1.0008   -2.5923    0.8038 H         1 <0>         0.0886
     35 H10        -2.8827   -2.5398   -1.5741 H         1 <0>         0.1070
     36 H11        -3.0787   -3.3590    0.0114 H         1 <0>         0.1047
     37 H12        -4.2916    0.6331    1.2384 H         1 <0>         0.0967
     38 H13        -4.7199    2.0766    0.2851 H         1 <0>         0.0892
     39 H14        -6.5904    0.3350    1.9493 H         1 <0>         0.0535
     40 H15        -6.1594    2.0359    2.2401 H         1 <0>         0.1090
     41 H16        -6.0059   -0.6104   -3.0233 H         1 <0>         0.0975
     42 H17        -7.0693   -1.4187   -1.8434 H         1 <0>         0.0688
     43 H18        -7.8700    0.8747   -3.6943 H         1 <0>         0.0633
     44 H19        -8.3194   -0.8328   -3.9040 H         1 <0>         0.0698
     45 H20       -10.1462    0.4632   -2.8342 H         1 <0>         0.0720
     46 H21        -9.5188   -0.7966   -1.7476 H         1 <0>         0.0640
     47 H22        -9.8119    1.3490   -0.5336 H         1 <0>         0.0760
     48 H23        -8.7255    2.1529   -1.6951 H         1 <0>         0.0739
@<TRIPOS>BOND
     1    1    6 ar
     2    1    2 ar
     3    1   29 1
     4    2    3 ar
     5    2   30 1
     6    3    4 ar
     7    3   28 1
     8    4    5 ar
     9    4   31 1
    10    5    6 ar
    11    5   32 1
    12    6    7 1
    13    7   12 am
    14    7    8 1
    15    8    9 1
    16    8   33 1
    17    8   34 1
    18    9   10 1
    19    9   35 1
    20    9   36 1
    21   10   11 1
    22   10   12 1
    23   10   14 1
    24   12   13 2
    25   14   15 2
    26   14   16 am
    27   16   22 1
    28   16   17 1
    29   17   18 1
    30   17   37 1
    31   17   38 1
    32   18   19 1
    33   18   39 1
    34   18   40 1
    35   19   20 1
    36   20   21 1
    37   20   27 1
    38   20   22 1
    39   22   23 1
    40   22   24 1
    41   24   25 1
    42   24   41 1
    43   24   42 1
    44   25   26 1
    45   25   43 1
    46   25   44 1
    47   26   27 1
    48   26   45 1
    49   26   46 1
    50   27   47 1
    51   27   48 1
@<TRIPOS>MOLECULE
ZINC13734477
   38    41     0     0     0
SMALL
USER_CHARGES

@<TRIPOS>ATOM
      1 C1         -0.9463    0.1508    0.5643 C.ar      1 <0>        -0.1037
      2 C2          0.0842    1.0744    0.5487 C.ar      1 <0>        -0.1225
      3 C3          1.3928    0.6510    0.4482 C.ar      1 <0>        -0.0914
      4 C4          1.6770   -0.7152    0.3619 C.ar      1 <0>        -0.0822
      5 C5          0.6305   -1.6421    0.3782 C.ar      1 <0>        -0.0984
      6 C6         -0.6729   -1.2032    0.4792 C.ar      1 <0>        -0.1216
      7 C7          3.0715   -1.1755    0.2538 C.2       1 <0>        -0.0183
      8 C8          3.3416   -2.4928    0.1708 C.2       1 <0>        -0.1376
      9 C9          4.7272   -2.9502    0.0634 C.2       1 <0>         0.1392
     10 N1          5.7736   -2.1897    0.0439 N.2       1 <0>        -0.2719
     11 O1          6.9801   -2.9169   -0.0566 O.3       1 <0>        -0.1516
     12 C10         6.6648   -4.2516   -0.4876 C.3       1 <0>         0.0232
     13 H1          7.3258   -5.0118   -0.0713 H         1 <0>         0.1847
     14 C11         5.1766   -4.3947   -0.0369 C.3       1 <0>        -0.1428
     15 H2          5.0394   -4.9629    0.8831 H         1 <0>         0.1768
     16 C12         4.5407   -5.0190   -1.2656 C.2       1 <0>         0.5453
     17 O2          3.4757   -5.5973   -1.2949 O.2       1 <0>        -0.4409
     18 N2          5.3545   -4.8230   -2.3137 N.am      1 <0>        -0.5211
     19 C13         6.5725   -4.2908   -1.9992 C.2       1 <0>         0.5135
     20 O3          7.4285   -3.9146   -2.7708 O.2       1 <0>        -0.4180
     21 C14         4.9916   -5.1425   -3.6297 C.ar      1 <0>         0.1093
     22 C15         5.9261   -5.0458   -4.6518 C.ar      1 <0>        -0.1375
     23 C16         5.5657   -5.3612   -5.9473 C.ar      1 <0>        -0.0988
     24 C17         4.2756   -5.7728   -6.2268 C.ar      1 <0>        -0.1220
     25 C18         3.3426   -5.8701   -5.2109 C.ar      1 <0>        -0.0997
     26 C19         3.6987   -5.5615   -3.9125 C.ar      1 <0>        -0.1357
     27 H3         -1.9689    0.4882    0.6477 H         1 <0>         0.1261
     28 H4         -0.1369    2.1294    0.6152 H         1 <0>         0.1279
     29 H5          2.1960    1.3729    0.4359 H         1 <0>         0.1289
     30 H6          0.8423   -2.6990    0.3116 H         1 <0>         0.1287
     31 H7         -1.4824   -1.9180    0.4920 H         1 <0>         0.1278
     32 H8          3.8778   -0.4571    0.2411 H         1 <0>         0.1352
     33 H9          2.5352   -3.2112    0.1835 H         1 <0>         0.1501
     34 H10         6.9339   -4.7240   -4.4342 H         1 <0>         0.1507
     35 H11         6.2922   -5.2858   -6.7429 H         1 <0>         0.1327
     36 H12         3.9960   -6.0185   -7.2406 H         1 <0>         0.1291
     37 H13         2.3357   -6.1919   -5.4321 H         1 <0>         0.1327
     38 H14         2.9708   -5.6420   -3.1187 H         1 <0>         0.1542
@<TRIPOS>BOND
     1    1    6 ar
     2    1    2 ar
     3    1   27 1
     4    2    3 ar
     5    2   28 1
     6    3    4 ar
     7    3   29 1
     8    4    5 ar
     9    4    7 1
    10    5    6 ar
    11    5   30 1
    12    6   31 1
    13    7    8 2
    14    7   32 1
    15    8    9 1
    16    8   33 1
    17    9   14 1
    18    9   10 2
    19   10   11 1
    20   11   12 1
    21   12   13 1
    22   12   19 1
    23   12   14 1
    24   14   15 1
    25   14   16 1
    26   16   17 2
    27   16   18 am
    28   18   19 am
    29   18   21 1
    30   19   20 2
    31   21   26 ar
    32   21   22 ar
    33   22   23 ar
    34   22   34 1
    35   23   24 ar
    36   23   35 1
    37   24   25 ar
    38   24   36 1
    39   25   26 ar
    40   25   37 1
    41   26   38 1
@<TRIPOS>MOLECULE
ZINC67517552
   52    55     0     0     0
SMALL
USER_CHARGES

@<TRIPOS>ATOM
      1 C1          0.1960    1.5646    0.6112 C.3       1 <0>        -0.1488
      2 C2          0.1917    0.0346    0.6064 C.3       1 <0>        -0.0942
      3 H1         -0.8011   -0.3275    0.8733 H         1 <0>         0.0731
      4 C3          0.5628   -0.4731   -0.7890 C.3       1 <0>        -0.1117
      5 C4          0.5464   -2.0022   -0.7925 C.3       1 <0>        -0.1288
      6 C5          1.5656   -2.5315    0.2196 C.3       1 <0>         0.1486
      7 H2          2.5701   -2.2190   -0.0659 H         1 <0>         0.1012
      8 C6          1.2283   -1.9967    1.6137 C.3       1 <0>        -0.0941
      9 H3          1.9789   -2.3444    2.3235 H         1 <0>         0.0721
     10 C7          1.2137   -0.4823    1.6205 C.3       1 <0>        -0.1074
     11 C8         -0.1458   -2.5152    2.0384 C.3       1 <0>        -0.1188
     12 C9         -0.1125   -4.0442    2.1108 C.3       1 <0>        -0.1351
     13 C10         0.2257   -4.6124    0.7294 C.3       1 <0>         0.0938
     14 N1          1.4843   -4.0011    0.2434 N.am      1 <0>        -0.6016
     15 C11         2.5278   -4.7562   -0.1531 C.2       1 <0>         0.5697
     16 O1          3.5251   -4.2265   -0.6037 O.2       1 <0>        -0.5296
     17 C12         2.4600   -6.2265   -0.0404 C.ar      1 <0>        -0.0824
     18 C13         1.3473   -6.9154   -0.5280 C.ar      1 <0>        -0.1214
     19 C14         1.2846   -8.2936   -0.4228 C.ar      1 <0>         0.0840
     20 C15         2.3312   -8.9945    0.1676 C.ar      1 <0>         0.0393
     21 C16         3.4417   -8.3087    0.6565 C.ar      1 <0>         0.1364
     22 C17         3.5110   -6.9327    0.5492 C.ar      1 <0>        -0.1574
     23 O2          4.4624   -8.9960    1.2358 O.3       1 <0>        -0.3003
     24 C18         5.5699   -8.2309    1.7153 C.3       1 <0>         0.0226
     25 O3          2.2887  -10.3504    0.2717 O.3       1 <0>        -0.2911
     26 C19         1.0074  -10.9689    0.1133 C.3       1 <0>         0.0180
     27 C20         0.3270  -10.3564   -1.1184 C.3       1 <0>         0.0184
     28 O4          0.1903   -8.9481   -0.9004 O.3       1 <0>        -0.2994
     29 H4          1.1890    1.9261    0.3442 H         1 <0>         0.0547
     30 H5         -0.5313    1.9323   -0.1127 H         1 <0>         0.0546
     31 H6         -0.0668    1.9255    1.6056 H         1 <0>         0.0545
     32 H7         -0.1589   -0.0999   -1.5156 H         1 <0>         0.0664
     33 H8          1.5599   -0.1194   -1.0514 H         1 <0>         0.0650
     34 H9         -0.4491   -2.3548   -0.5229 H         1 <0>         0.0691
     35 H10         0.8017   -2.3653   -1.7880 H         1 <0>         0.0657
     36 H11         2.2053   -0.1160    1.3546 H         1 <0>         0.0645
     37 H12         0.9506   -0.1230    2.6154 H         1 <0>         0.0679
     38 H13        -0.4004   -2.1103    3.0178 H         1 <0>         0.0669
     39 H14        -0.8936   -2.2021    1.3098 H         1 <0>         0.0716
     40 H15         0.6459   -4.3576    2.8283 H         1 <0>         0.0671
     41 H16        -1.0876   -4.4144    2.4274 H         1 <0>         0.0779
     42 H17         0.3529   -5.6926    0.8004 H         1 <0>         0.0953
     43 H18        -0.5811   -4.3835    0.0332 H         1 <0>         0.0745
     44 H19         0.5349   -6.3718   -0.9873 H         1 <0>         0.1445
     45 H20         4.3747   -6.4038    0.9244 H         1 <0>         0.1462
     46 H21         6.0189   -7.6830    0.8869 H         1 <0>         0.0601
     47 H22         5.2245   -7.5265    2.4720 H         1 <0>         0.0578
     48 H23         6.3112   -8.8996    2.1528 H         1 <0>         0.1054
     49 H24         1.1326  -12.0420   -0.0314 H         1 <0>         0.1262
     50 H25         0.3987  -10.7855    0.9988 H         1 <0>         0.0802
     51 H26         0.9390  -10.5338   -2.0027 H         1 <0>         0.0817
     52 H27        -0.6571  -10.8045   -1.2557 H         1 <0>         0.1270
@<TRIPOS>BOND
     1    1    2 1
     2    1   29 1
     3    1   30 1
     4    1   31 1
     5    2    3 1
     6    2   10 1
     7    2    4 1
     8    4    5 1
     9    4   32 1
    10    4   33 1
    11    5    6 1
    12    5   34 1
    13    5   35 1
    14    6    7 1
    15    6   14 1
    16    6    8 1
    17    8    9 1
    18    8   10 1
    19    8   11 1
    20   10   36 1
    21   10   37 1
    22   11   12 1
    23   11   38 1
    24   11   39 1
    25   12   13 1
    26   12   40 1
    27   12   41 1
    28   13   14 1
    29   13   42 1
    30   13   43 1
    31   14   15 am
    32   15   16 2
    33   15   17 1
    34   17   22 ar
    35   17   18 ar
    36   18   19 ar
    37   18   44 1
    38   19   28 1
    39   19   20 ar
    40   20   21 ar
    41   20   25 1
    42   21   22 ar
    43   21   23 1
    44   22   45 1
    45   23   24 1
    46   24   46 1
    47   24   47 1
    48   24   48 1
    49   25   26 1
    50   26   27 1
    51   26   49 1
    52   26   50 1
    53   27   28 1
    54   27   51 1
    55   27   52 1
@<TRIPOS>MOLECULE
ZINC14187208
   56    59     0     0     0
SMALL
USER_CHARGES
2-[[(2S)-2-(2,4-dimethoxyphenyl)pyrrolidin-1-yl]methyl]-4-methyl-5-(2-thienylmethyl)-1,2,4-triazole-3-thione
@<TRIPOS>ATOM
      1 C1         -3.2139    0.5532    1.7696 C.3       1 <0>         0.0733
      2 N1         -2.4404   -0.6156    2.1959 N.pl3     1 <0>        -0.4858
      3 C2         -1.5280   -1.2987    1.4300 C.2       1 <0>         0.3159
      4 N2         -1.0444   -2.2753    2.1280 N.2       1 <0>        -0.2799
      5 N3         -1.6404   -2.2421    3.3963 N.pl3     1 <0>        -0.4239
      6 C3         -2.5031   -1.2046    3.4070 C.2       1 <0>         0.4394
      7 S1         -3.4952   -0.7248    4.7172 S.2       1 <0>        -0.4709
      8 C4         -1.3787   -3.1654    4.5032 C.3       1 <0>         0.2782
      9 C5         -1.9674   -5.1684    3.2606 C.3       1 <0>        -0.0175
     10 C6         -3.2956   -5.7283    2.7187 C.3       1 <0>        -0.1425
     11 C7         -4.3912   -5.1077    3.6155 C.3       1 <0>        -0.1338
     12 C8         -3.6946   -3.8503    4.1937 C.3       1 <0>         0.0922
     13 H1         -3.7212   -3.0311    3.4752 H         1 <0>         0.1376
     14 C9         -4.3337   -3.4392    5.4951 C.ar      1 <0>        -0.1794
     15 C10        -3.8108   -3.8879    6.6931 C.ar      1 <0>        -0.0545
     16 C11        -4.3941   -3.5124    7.8878 C.ar      1 <0>        -0.2320
     17 C12        -5.5072   -2.6833    7.8876 C.ar      1 <0>         0.1944
     18 C13        -6.0335   -2.2320    6.6873 C.ar      1 <0>        -0.2358
     19 C14        -5.4431   -2.6060    5.4898 C.ar      1 <0>         0.2426
     20 O1         -5.9534   -2.1606    4.3116 O.3       1 <0>        -0.3027
     21 C15        -7.0966   -1.3060    4.3815 C.3       1 <0>         0.0259
     22 O2         -6.0809   -2.3147    9.0631 O.3       1 <0>        -0.3088
     23 C16        -5.4860   -2.8175   10.2611 C.3       1 <0>         0.0235
     24 C17        -1.1555   -0.9689    0.0075 C.3       1 <0>         0.0434
     25 C18         0.0021   -0.0041    0.0020 C.2       1 <0>        -0.1927
     26 C19         1.3319   -0.2664   -0.0121 C.2       1 <0>        -0.1125
     27 C20         2.2234    0.7899   -0.0149 C.2       1 <0>        -0.1684
     28 C21         1.7416    2.0568   -0.0035 C.2       1 <0>        -0.1417
     29 S2         -0.0221    1.7810    0.0118 S.3       1 <0>         0.0518
     30 H2         -4.1533    0.2247    1.3248 H         1 <0>         0.0991
     31 H3         -3.4221    1.1856    2.6326 H         1 <0>         0.1175
     32 H4         -2.6419    1.1189    1.0342 H         1 <0>         0.0984
     33 H5         -0.3505   -3.5221    4.4435 H         1 <0>         0.1698
     34 H6         -1.5295   -2.6485    5.4509 H         1 <0>         0.1730
     35 H7         -1.4703   -4.5799    2.4894 H         1 <0>         0.1337
     36 H8         -1.3195   -5.9849    3.5796 H         1 <0>         0.1400
     37 H9         -3.4390   -5.4250    1.6816 H         1 <0>         0.0987
     38 H10        -3.3091   -6.8152    2.7996 H         1 <0>         0.1084
     39 H11        -5.2622   -4.8279    3.0229 H         1 <0>         0.1149
     40 H12        -4.6735   -5.7962    4.4120 H         1 <0>         0.1018
     41 H13        -2.9449   -4.5334    6.6953 H         1 <0>         0.1159
     42 H14        -3.9835   -3.8640    8.8228 H         1 <0>         0.1382
     43 H15        -6.8994   -1.5865    6.6850 H         1 <0>         0.1439
     44 H16        -7.9140   -1.8322    4.8746 H         1 <0>         0.0596
     45 H17        -6.8462   -0.4100    4.9496 H         1 <0>         0.0646
     46 H18        -7.4015   -1.0239    3.3738 H         1 <0>         0.1035
     47 H19        -5.5135   -3.9072   10.2508 H         1 <0>         0.0611
     48 H20        -4.4511   -2.4808   10.3219 H         1 <0>         0.0609
     49 H21        -6.0396   -2.4483   11.1244 H         1 <0>         0.1082
     50 H22        -2.0093   -0.5150   -0.4957 H         1 <0>         0.1208
     51 H23        -0.8697   -1.8823   -0.5143 H         1 <0>         0.1361
     52 H24         1.6894   -1.2854   -0.0206 H         1 <0>         0.1376
     53 H25         3.2880    0.6085   -0.0264 H         1 <0>         0.1422
     54 H26         2.2840    2.9908   -0.0040 H         1 <0>         0.1934
     55 N4         -2.3207   -4.3208    4.4051 N.4       1 <0>        -0.4120
     56 H27        -2.2721   -4.8692    5.2717 H         1 <0>         0.4352
@<TRIPOS>BOND
     1    1    2 1
     2    1   30 1
     3    1   31 1
     4    1   32 1
     5    2    6 1
     6    2    3 1
     7    3    4 2
     8    3   24 1
     9    4    5 1
    10    5    6 1
    11    5    8 1
    12    6    7 2
    13    8   33 1
    14    8   34 1
    15    8   55 1
    16    9   10 1
    17    9   35 1
    18    9   36 1
    19    9   55 1
    20   10   11 1
    21   10   37 1
    22   10   38 1
    23   11   12 1
    24   11   39 1
    25   11   40 1
    26   12   13 1
    27   12   14 1
    28   12   55 1
    29   14   19 ar
    30   14   15 ar
    31   15   16 ar
    32   15   41 1
    33   16   17 ar
    34   16   42 1
    35   17   18 ar
    36   17   22 1
    37   18   19 ar
    38   18   43 1
    39   19   20 1
    40   20   21 1
    41   21   44 1
    42   21   45 1
    43   21   46 1
    44   22   23 1
    45   23   47 1
    46   23   48 1
    47   23   49 1
    48   24   25 1
    49   24   50 1
    50   24   51 1
    51   25   29 1
    52   25   26 2
    53   26   27 1
    54   26   52 1
    55   27   28 2
    56   27   53 1
    57   28   29 1
    58   28   54 1
    59   55   56 1
@<TRIPOS>MOLECULE
ZINC22062061
   60    62     0     0     0
SMALL
USER_CHARGES
(7S)-1,2,3,10-tetramethoxy-7-(methyl-(2-sulfanylethyl)amino)-6,7-dihydro-5H-benzo[g]heptalen-9-one
@<TRIPOS>ATOM
      1 C1          1.3939   -0.4995    1.9125 C.3       1 <0>        -0.0627
      2 N1          1.9228   -0.6280    0.5480 N.4       1 <0>        -0.4041
      3 C2          3.1620   -1.4167    0.5358 C.3       1 <0>         0.0075
      4 C3          2.8529   -2.8586    0.9437 C.3       1 <0>        -0.1190
      5 S1          4.3832   -3.8325    0.9287 S.3       1 <0>        -0.0979
      6 C4          2.1328    0.6919   -0.0617 C.3       1 <0>         0.0659
      7 H1          2.7305    1.3133    0.6214 H         1 <0>         0.1574
      8 C5          2.8906    0.5208   -1.3624 C.3       1 <0>        -0.1392
      9 C6          2.8237    1.7902   -2.2075 C.3       1 <0>        -0.0792
     10 C7          3.0652    2.9944   -1.3342 C.ar      1 <0>        -0.0346
     11 C8          4.2792    3.6481   -1.3767 C.ar      1 <0>        -0.1934
     12 C9          4.4924    4.7713   -0.5877 C.ar      1 <0>         0.1419
     13 C10         3.4869    5.2435    0.2491 C.ar      1 <0>         0.0518
     14 C11         2.2641    4.5874    0.3009 C.ar      1 <0>         0.1354
     15 C12         2.0573    3.4556   -0.4934 C.ar      1 <0>        -0.1168
     16 C13         0.7466    2.7410   -0.4343 C.2       1 <0>        -0.0807
     17 C14         0.7883    1.3546   -0.2812 C.2       1 <0>         0.0308
     18 C15        -0.2811    0.5400   -0.2999 C.2       1 <0>        -0.2401
     19 C16        -1.6213    0.7689   -0.4331 C.2       1 <0>         0.3919
     20 O1         -2.3298   -0.2285   -0.4662 O.2       1 <0>        -0.4670
     21 C17        -2.2872    1.9860   -0.5299 C.2       1 <0>         0.1374
     22 C18        -1.6939    3.2088   -0.5784 C.2       1 <0>        -0.2097
     23 C19        -0.3819    3.5109   -0.5458 C.2       1 <0>         0.0299
     24 O2         -3.6410    1.9503   -0.5858 O.3       1 <0>        -0.2717
     25 C20        -4.3193    3.2037   -0.6906 C.3       1 <0>         0.0044
     26 O3          1.2767    5.0419    1.1165 O.3       1 <0>        -0.3234
     27 C21         1.2415    4.5192    2.4460 C.3       1 <0>         0.0358
     28 O4          3.7013    6.3469    1.0165 O.3       1 <0>        -0.3182
     29 C22         3.3676    7.6118    0.4416 C.3       1 <0>         0.0341
     30 O5          5.6902    5.4120   -0.6334 O.3       1 <0>        -0.2967
     31 C23         6.6799    4.8752   -1.5134 C.3       1 <0>         0.0169
     32 H2          0.4681    0.0942    1.8925 H         1 <0>         0.1280
     33 H3          2.1379    0.0027    2.5483 H         1 <0>         0.1291
     34 H4          1.1797   -1.4992    2.3184 H         1 <0>         0.1306
     35 H5          3.5933   -1.4063   -0.4761 H         1 <0>         0.1534
     36 H6          3.8809   -0.9810    1.2453 H         1 <0>         0.1479
     37 H7          2.4216   -2.8689    1.9556 H         1 <0>         0.1069
     38 H8          2.1340   -3.2943    0.2342 H         1 <0>         0.1070
     39 H9          4.3589   -4.8992    1.1963 H         1 <0>         0.0053
     40 H10         3.9456    0.2975   -1.1454 H         1 <0>         0.1097
     41 H11         2.4510   -0.3080   -1.9366 H         1 <0>         0.1012
     42 H12         3.5929    1.7488   -2.9928 H         1 <0>         0.1040
     43 H13         1.8297    1.8697   -2.6718 H         1 <0>         0.0929
     44 H14         5.0644    3.2866   -2.0241 H         1 <0>         0.1461
     45 H15        -0.0300   -0.5049   -0.1923 H         1 <0>         0.1170
     46 H16        -2.3655    4.0513   -0.6527 H         1 <0>         0.1471
     47 H17        -0.1788    4.5688   -0.6232 H         1 <0>         0.1382
     48 H18        -5.4051    3.0311   -0.7267 H         1 <0>         0.1214
     49 H19        -3.9990    3.7183   -1.6086 H         1 <0>         0.0731
     50 H20        -4.0759    3.8265    0.1828 H         1 <0>         0.0729
     51 H21         0.3998    4.9676    2.9941 H         1 <0>         0.1031
     52 H22         2.1838    4.7603    2.9598 H         1 <0>         0.0594
     53 H23         1.1139    3.4273    2.4074 H         1 <0>         0.0409
     54 H24         3.5888    8.4122    1.1630 H         1 <0>         0.1012
     55 H25         2.2967    7.6296    0.1910 H         1 <0>         0.0512
     56 H26         3.9605    7.7673   -0.4718 H         1 <0>         0.0498
     57 H27         7.5936    5.4847   -1.4529 H         1 <0>         0.1115
     58 H28         6.2986    4.8875   -2.5451 H         1 <0>         0.0624
     59 H29         6.9093    3.8403   -1.2195 H         1 <0>         0.0617
     60 H30         1.1752   -1.1639   -0.0552 H         1 <0>         0.4404
@<TRIPOS>BOND
     1    1    2 1
     2    1   32 1
     3    1   33 1
     4    1   34 1
     5    2    3 1
     6    2    6 1
     7    2   60 1
     8    3    4 1
     9    3   35 1
    10    3   36 1
    11    4    5 1
    12    4   37 1
    13    4   38 1
    14    5   39 1
    15    6    7 1
    16    6   17 1
    17    6    8 1
    18    8    9 1
    19    8   40 1
    20    8   41 1
    21    9   10 1
    22    9   42 1
    23    9   43 1
    24   10   15 ar
    25   10   11 ar
    26   11   12 ar
    27   11   44 1
    28   12   13 ar
    29   12   30 1
    30   13   14 ar
    31   13   28 1
    32   14   15 ar
    33   14   26 1
    34   15   16 1
    35   16   23 2
    36   16   17 1
    37   17   18 2
    38   18   19 1
    39   18   45 1
    40   19   20 2
    41   19   21 1
    42   21   22 2
    43   21   24 1
    44   22   23 1
    45   22   46 1
    46   23   47 1
    47   24   25 1
    48   25   48 1
    49   25   49 1
    50   25   50 1
    51   26   27 1
    52   27   51 1
    53   27   52 1
    54   27   53 1
    55   28   29 1
    56   29   54 1
    57   29   55 1
    58   29   56 1
    59   30   31 1
    60   31   57 1
    61   31   58 1
    62   31   59 1
@<TRIPOS>MOLECULE
ZINC39007366
   49    52     0     0     0
SMALL
USER_CHARGES

@<TRIPOS>ATOM
      1 C1          0.0368    1.4022    0.2753 C.ar      1 <0>        -0.1684
      2 C2          1.2344    2.0887    0.0732 C.ar      1 <0>         0.0962
      3 C3          2.4250    1.4541   -0.0864 C.ar      1 <0>        -0.2287
      4 C4          2.4957    0.0493   -0.0531 C.ar      1 <0>         0.3574
      5 N1          3.6694   -0.5626   -0.2104 N.am      1 <0>        -0.5951
      6 C5          3.8066   -1.8778   -0.1904 C.2       1 <0>         0.5145
      7 O1          4.9047   -2.3795   -0.3397 O.2       1 <0>        -0.4107
      8 C6          2.5933   -2.7554    0.0195 C.3       1 <0>        -0.1801
      9 H1          2.5117   -3.4237   -0.8378 H         1 <0>         0.1688
     10 C7          1.2559   -2.0643    0.1995 C.2       1 <0>         0.1469
     11 C8          1.2461   -0.7016    0.1588 C.ar      1 <0>        -0.1857
     12 C9         -0.0013    0.0455    0.3236 C.ar      1 <0>         0.0219
     13 C10         2.8459   -3.6173    1.2582 C.3       1 <0>         0.1298
     14 N2          3.9735   -4.5177    1.0049 N.pl3     1 <0>        -0.9871
     15 C11         5.3197   -4.1488    1.4497 C.3       1 <0>         0.1730
     16 C12         5.5163   -4.5919    2.8766 C.ar      1 <0>        -0.1843
     17 C13         5.1870   -3.7471    3.9258 C.ar      1 <0>        -0.0615
     18 C14         5.3848   -4.1969    5.2221 C.ar      1 <0>        -0.1763
     19 C15         5.9000   -5.4636    5.4242 C.ar      1 <0>         0.1133
     20 N3          6.2024   -6.2397    4.4021 N.ar      1 <0>        -0.4791
     21 C16         6.0217   -5.8473    3.1560 C.ar      1 <0>         0.1245
     22 S1          3.7262   -5.9525    0.2158 S.o2      1 <0>         2.6820
     23 O2          4.7887   -6.8149    0.5988 O.2       1 <0>        -0.9254
     24 O3          2.3605   -6.2931    0.4108 O.2       1 <0>        -0.9417
     25 C17         3.9265   -5.6409   -1.5068 C.ar      1 <0>        -0.6811
     26 C18         2.8389   -5.2624   -2.2716 C.ar      1 <0>        -0.0317
     27 C19         2.9954   -5.0179   -3.6229 C.ar      1 <0>        -0.1298
     28 C20         4.2409   -5.1520   -4.2101 C.ar      1 <0>         0.0194
     29 C21         5.3290   -5.5308   -3.4443 C.ar      1 <0>        -0.1215
     30 C22         5.1724   -5.7696   -2.0919 C.ar      1 <0>         0.0045
     31 Cl1         4.4381   -4.8455   -5.9075 Cl        1 <0>        -0.0397
     32 H2         -0.8786    1.9615    0.4005 H         1 <0>         0.1666
     33 H3          1.2141    3.1680    0.0421 H         1 <0>         0.1680
     34 H4          3.3240    2.0324   -0.2405 H         1 <0>         0.1703
     35 H5          0.3480   -2.6285    0.3537 H         1 <0>         0.2072
     36 H6         -0.9357   -0.4728    0.4804 H         1 <0>         0.1773
     37 H7          3.0781   -2.9741    2.1070 H         1 <0>         0.1126
     38 H8          1.9548   -4.2044    1.4802 H         1 <0>         0.1332
     39 H9          6.0587   -4.6353    0.8130 H         1 <0>         0.1040
     40 H10         5.4401   -3.0674    1.3851 H         1 <0>         0.1001
     41 H11         4.7862   -2.7621    3.7375 H         1 <0>         0.1258
     42 H12         5.1397   -3.5656    6.0633 H         1 <0>         0.1386
     43 H13         6.0571   -5.8214    6.4310 H         1 <0>         0.1610
     44 H14         6.2761   -6.5130    2.3445 H         1 <0>         0.1718
     45 H15         1.8666   -5.1581   -1.8131 H         1 <0>         0.1468
     46 H16         2.1455   -4.7225   -4.2203 H         1 <0>         0.1475
     47 H17         6.3014   -5.6359   -3.9022 H         1 <0>         0.1506
     48 H18         6.0227   -6.0607   -1.4931 H         1 <0>         0.1541
     49 H19         4.4602   -0.0175   -0.3463 H         1 <0>         0.4402
@<TRIPOS>BOND
     1    1   12 ar
     2    1    2 ar
     3    1   32 1
     4    2    3 ar
     5    2   33 1
     6    3    4 ar
     7    3   34 1
     8    4   11 ar
     9    4    5 2
    10    5    6 am
    11    5   49 1
    12    6    7 2
    13    6    8 1
    14    8    9 1
    15    8   10 1
    16    8   13 1
    17   10   11 2
    18   10   35 1
    19   11   12 ar
    20   12   36 1
    21   13   14 1
    22   13   37 1
    23   13   38 1
    24   14   15 1
    25   14   22 1
    26   15   16 1
    27   15   39 1
    28   15   40 1
    29   16   21 ar
    30   16   17 ar
    31   17   18 ar
    32   17   41 1
    33   18   19 ar
    34   18   42 1
    35   19   20 ar
    36   19   43 1
    37   20   21 ar
    38   21   44 1
    39   22   23 2
    40   22   24 2
    41   22   25 1
    42   25   30 ar
    43   25   26 ar
    44   26   27 ar
    45   26   45 1
    46   27   28 ar
    47   27   46 1
    48   28   29 ar
    49   28   31 1
    50   29   30 ar
    51   29   47 1
    52   30   48 1
@<TRIPOS>MOLECULE
ZINC59579337
   54    57     0     0     0
SMALL
USER_CHARGES

@<TRIPOS>ATOM
      1 C1         -0.0168    1.3913    0.0097 C.ar      1 <0>        -0.0457
      2 C2          1.1698    2.0945    0.0021 C.ar      1 <0>        -0.1103
      3 C3          2.3782    1.4185   -0.0130 C.ar      1 <0>         0.0098
      4 C4          2.4032    0.0340   -0.0212 C.ar      1 <0>        -0.1133
      5 C5          1.2229   -0.6799   -0.0142 C.ar      1 <0>        -0.0398
      6 C6          0.0021   -0.0041    0.0020 C.ar      1 <0>        -0.0715
      7 C7         -1.2667   -0.7637    0.0105 C.2       1 <0>         0.3464
      8 N1         -1.3701   -2.0613    0.0098 N.2       1 <0>        -0.2883
      9 N2         -2.7356   -2.3819    0.0195 N.pl3     1 <0>        -0.4380
     10 C8         -3.4120   -1.2137    0.0259 C.2       1 <0>         0.4048
     11 S1         -5.1140   -1.0288    0.0392 S.2       1 <0>        -0.3651
     12 O1         -2.5043   -0.2222    0.0262 O.3       1 <0>        -0.1950
     13 C9         -3.3164   -3.7269    0.0218 C.3       1 <0>         0.2652
     14 N3         -3.1720   -4.3203    1.3579 N.4       1 <0>        -0.4028
     15 C10        -3.9609   -3.5459    2.3235 C.3       1 <0>        -0.0115
     16 C11        -3.7498   -4.1107    3.7299 C.3       1 <0>        -0.1382
     17 C12        -4.1987   -5.5746    3.7588 C.3       1 <0>        -0.0849
     18 C13        -3.4220   -6.3575    2.6964 C.3       1 <0>        -0.1453
     19 C14        -3.6451   -5.7095    1.3283 C.3       1 <0>        -0.0022
     20 C15        -3.9170   -6.1689    5.1403 C.3       1 <0>        -0.1349
     21 C16        -4.4696   -7.5693    5.2068 C.2       1 <0>         0.5269
     22 O2         -5.0333   -8.0452    4.2442 O.2       1 <0>        -0.5425
     23 N4         -4.3375   -8.2929    6.3362 N.am      1 <0>        -0.6162
     24 C17        -3.6855   -7.8390    7.5733 C.3       1 <0>         0.0961
     25 C18        -3.7501   -9.0067    8.5802 C.3       1 <0>        -0.1353
     26 C19        -3.9318  -10.2458    7.6643 C.3       1 <0>        -0.1356
     27 C20        -4.8283   -9.6684    6.5377 C.3       1 <0>         0.1019
     28 Cl1         3.8677    2.3102   -0.0225 Cl        1 <0>        -0.0329
     29 H1         -0.9587    1.9195    0.0260 H         1 <0>         0.1511
     30 H2          1.1564    3.1744    0.0077 H         1 <0>         0.1553
     31 H3          3.3487   -0.4879   -0.0334 H         1 <0>         0.1544
     32 H4          1.2436   -1.7596   -0.0213 H         1 <0>         0.1490
     33 H5         -4.3736   -3.6665   -0.2366 H         1 <0>         0.1830
     34 H6         -2.7985   -4.3475   -0.7093 H         1 <0>         0.1737
     35 H7         -3.6425   -2.5037    2.2994 H         1 <0>         0.1149
     36 H8         -5.0172   -3.6083    2.0621 H         1 <0>         0.1444
     37 H9         -2.6937   -4.0486    3.9924 H         1 <0>         0.0883
     38 H10        -4.3378   -3.5355    4.4451 H         1 <0>         0.1172
     39 H11        -5.2663   -5.6327    3.5466 H         1 <0>         0.1029
     40 H12        -2.3591   -6.3421    2.9374 H         1 <0>         0.0847
     41 H13        -3.7755   -7.3883    2.6729 H         1 <0>         0.1356
     42 H14        -4.7082   -5.7257    1.0881 H         1 <0>         0.1399
     43 H15        -3.0936   -6.2646    0.5695 H         1 <0>         0.1381
     44 H16        -2.8410   -6.1943    5.3123 H         1 <0>         0.0991
     45 H17        -4.3926   -5.5539    5.9043 H         1 <0>         0.1048
     46 H18        -2.6460   -7.5809    7.3713 H         1 <0>         0.0711
     47 H19        -4.2133   -6.9739    7.9746 H         1 <0>         0.0724
     48 H20        -2.8219   -9.0789    9.1471 H         1 <0>         0.0877
     49 H21        -4.6036   -8.8928    9.2486 H         1 <0>         0.0815
     50 H22        -2.9735  -10.5845    7.2706 H         1 <0>         0.0783
     51 H23        -4.4418  -11.0511    8.1930 H         1 <0>         0.0904
     52 H24        -5.8728   -9.6566    6.8493 H         1 <0>         0.0733
     53 H25        -4.7108  -10.2508    5.6239 H         1 <0>         0.0815
     54 H26        -2.2004   -4.3027    1.6293 H         1 <0>         0.4259
@<TRIPOS>BOND
     1    1    6 ar
     2    1    2 ar
     3    1   29 1
     4    2    3 ar
     5    2   30 1
     6    3    4 ar
     7    3   28 1
     8    4    5 ar
     9    4   31 1
    10    5    6 ar
    11    5   32 1
    12    6    7 1
    13    7   12 1
    14    7    8 2
    15    8    9 1
    16    9   10 1
    17    9   13 1
    18   10   11 2
    19   10   12 1
    20   13   14 1
    21   13   33 1
    22   13   34 1
    23   14   19 1
    24   14   15 1
    25   14   54 1
    26   15   16 1
    27   15   35 1
    28   15   36 1
    29   16   17 1
    30   16   37 1
    31   16   38 1
    32   17   18 1
    33   17   20 1
    34   17   39 1
    35   18   19 1
    36   18   40 1
    37   18   41 1
    38   19   42 1
    39   19   43 1
    40   20   21 1
    41   20   44 1
    42   20   45 1
    43   21   22 2
    44   21   23 am
    45   23   27 1
    46   23   24 1
    47   24   25 1
    48   24   46 1
    49   24   47 1
    50   25   26 1
    51   25   48 1
    52   25   49 1
    53   26   27 1
    54   26   50 1
    55   26   51 1
    56   27   52 1
    57   27   53 1
@<TRIPOS>MOLECULE
ZINC64182240
   56    59     0     0     0
SMALL
USER_CHARGES

@<TRIPOS>ATOM
      1 C1         -0.6736    1.4403   -0.3517 C.3       1 <0>         0.0784
      2 N1         -0.7578   -0.0215   -0.4005 N.pl3     1 <0>        -0.9967
      3 C2         -0.5661   -0.8074    0.8209 C.3       1 <0>         0.1240
      4 C3         -1.8914   -0.9029    1.5793 C.3       1 <0>        -0.1317
      5 C4         -1.6912   -1.7237    2.8549 C.3       1 <0>        -0.1398
      6 C5         -2.9966   -1.8176    3.6019 C.2       1 <0>         0.5219
      7 O1         -3.9894   -1.2810    3.1578 O.2       1 <0>        -0.5147
      8 N2         -3.0609   -2.4981    4.7635 N.am      1 <0>        -0.6278
      9 C6         -4.3229   -2.6134    5.5139 C.3       1 <0>         0.1087
     10 C7         -4.7065   -4.0941    5.5711 C.3       1 <0>        -0.1069
     11 C8         -3.5153   -4.9292    5.9373 C.2       1 <0>        -0.1299
     12 C9         -2.2566   -4.5217    5.8261 C.2       1 <0>        -0.0206
     13 C10        -1.8756   -3.1592    5.3277 C.3       1 <0>         0.1156
     14 C11        -3.7472   -6.2292    6.4313 C.2       1 <0>         0.1239
     15 C12        -4.9662   -6.8895    6.5170 C.ar      1 <0>        -0.1811
     16 C13        -6.2836   -6.5132    6.1662 C.ar      1 <0>        -0.0215
     17 C14        -7.3061   -7.3808    6.3657 C.ar      1 <0>        -0.1539
     18 C15        -7.0949   -8.6503    6.9138 C.ar      1 <0>         0.0429
     19 C16        -5.8616   -9.0784    7.2731 C.ar      1 <0>        -0.2053
     20 C17        -4.7385   -8.2265    7.0950 C.ar      1 <0>         0.3115
     21 N3         -3.4617   -8.4023    7.3582 N.pl3     1 <0>        -0.6068
     22 C18        -2.7193   -7.1982    6.9725 C.3       1 <0>         0.0659
     23 S1         -1.0697   -0.7854   -1.8362 S.o2      1 <0>         2.7242
     24 O2         -1.6339   -2.0482   -1.5102 O.2       1 <0>        -0.9458
     25 O3         -1.7395    0.1580   -2.6612 O.2       1 <0>        -0.9420
     26 C19         0.4837   -1.1104   -2.6017 C.2       1 <0>        -0.7713
     27 C20         1.2783   -2.2029   -2.4902 C.2       1 <0>        -0.0066
     28 C21         2.4683   -2.2407   -3.1923 C.2       1 <0>        -0.1956
     29 C22         2.8057   -1.1841   -3.9715 C.2       1 <0>        -0.1280
     30 S2          1.4158   -0.0896   -3.7314 S.3       1 <0>         0.1722
     31 H1          0.3556    1.7511   -0.5311 H         1 <0>         0.0600
     32 H2         -1.3209    1.8673   -1.1177 H         1 <0>         0.0874
     33 H3         -0.9929    1.7900    0.6301 H         1 <0>         0.0821
     34 H4         -0.2246   -1.8088    0.5587 H         1 <0>         0.0824
     35 H5          0.1793   -0.3228    1.4515 H         1 <0>         0.0853
     36 H6         -2.2329    0.0985    1.8415 H         1 <0>         0.0814
     37 H7         -2.6368   -1.3874    0.9487 H         1 <0>         0.0826
     38 H8         -1.3497   -2.7250    2.5927 H         1 <0>         0.0989
     39 H9         -0.9458   -1.2391    3.4855 H         1 <0>         0.1012
     40 H10        -4.1869   -2.2288    6.5247 H         1 <0>         0.0817
     41 H11        -5.1058   -2.0494    5.0068 H         1 <0>         0.1110
     42 H12        -5.4888   -4.2354    6.3168 H         1 <0>         0.0980
     43 H13        -5.0806   -4.4075    4.5965 H         1 <0>         0.0957
     44 H14        -1.4688   -5.2055    6.1056 H         1 <0>         0.1424
     45 H15        -1.1103   -3.2545    4.5573 H         1 <0>         0.1239
     46 H16        -1.4879   -2.5668    6.1564 H         1 <0>         0.1145
     47 H17        -6.4744   -5.5387    5.7415 H         1 <0>         0.1586
     48 H18        -8.3087   -7.0843    6.0950 H         1 <0>         0.1543
     49 H19        -7.9400   -9.3077    7.0549 H         1 <0>         0.1588
     50 H20        -5.7320  -10.0647    7.6937 H         1 <0>         0.1577
     51 H21        -1.9864   -7.4371    6.2019 H         1 <0>         0.1677
     52 H22        -2.2229   -6.7709    7.8438 H         1 <0>         0.1685
     53 H23         0.9860   -3.0314   -1.8620 H         1 <0>         0.1452
     54 H24         3.1198   -3.0991   -3.1208 H         1 <0>         0.1463
     55 H25         3.6851   -1.0428   -4.5823 H         1 <0>         0.1986
     56 H26        -3.0724   -9.2033    7.7425 H         1 <0>         0.4523
@<TRIPOS>BOND
     1    1    2 1
     2    1   31 1
     3    1   32 1
     4    1   33 1
     5    2    3 1
     6    2   23 1
     7    3    4 1
     8    3   34 1
     9    3   35 1
    10    4    5 1
    11    4   36 1
    12    4   37 1
    13    5    6 1
    14    5   38 1
    15    5   39 1
    16    6    7 2
    17    6    8 am
    18    8   13 1
    19    8    9 1
    20    9   10 1
    21    9   40 1
    22    9   41 1
    23   10   11 1
    24   10   42 1
    25   10   43 1
    26   11   12 2
    27   11   14 1
    28   12   13 1
    29   12   44 1
    30   13   45 1
    31   13   46 1
    32   14   22 1
    33   14   15 2
    34   15   20 ar
    35   15   16 ar
    36   16   17 ar
    37   16   47 1
    38   17   18 ar
    39   17   48 1
    40   18   19 ar
    41   18   49 1
    42   19   20 ar
    43   19   50 1
    44   20   21 2
    45   21   22 1
    46   21   56 1
    47   22   51 1
    48   22   52 1
    49   23   24 2
    50   23   25 2
    51   23   26 1
    52   26   30 1
    53   26   27 2
    54   27   28 1
    55   27   53 1
    56   28   29 2
    57   28   54 1
    58   29   30 1
    59   29   55 1
@<TRIPOS>MOLECULE
ZINC10233208
   57    60     0     0     0
SMALL
USER_CHARGES
(4-chlorophenyl)-(2-diethylaminoethyl)-methoxy-BLAHdione
@<TRIPOS>ATOM
      1 C1        -10.7957    4.8547    6.5685 C.3       1 <0>        -0.1906
      2 C2        -11.6203    3.7501    5.9045 C.3       1 <0>        -0.0081
      3 C3        -12.1657    1.4036    6.1479 C.3       1 <0>        -0.0147
      4 C4        -13.3176    1.6003    7.1355 C.3       1 <0>        -0.1895
      5 C5         -9.8788    2.0774    5.7249 C.3       1 <0>        -0.0331
      6 C6         -9.2939    0.8398    6.4083 C.3       1 <0>         0.1179
      7 N1         -8.0283    0.4789    5.7648 N.am      1 <0>        -0.5973
      8 C7         -7.8683   -0.4309    4.6239 C.3       1 <0>         0.2361
      9 H1         -8.4099   -0.0476    3.7591 H         1 <0>         0.1256
     10 C8         -6.3908   -0.4758    4.3328 C.2       1 <0>        -0.2449
     11 C9         -5.5978   -1.1919    3.3288 C.2       1 <0>         0.4523
     12 O1         -6.1182   -1.9287    2.5094 O.2       1 <0>        -0.4390
     13 C10        -4.1397   -0.9771    3.3599 C.ar      1 <0>        -0.2599
     14 C11        -3.2918   -1.6099    2.4500 C.ar      1 <0>         0.0187
     15 C12        -1.9462   -1.3862    2.5106 C.ar      1 <0>        -0.2276
     16 C13        -1.4185   -0.5298    3.4761 C.ar      1 <0>         0.2067
     17 C14        -2.2462    0.1006    4.3888 C.ar      1 <0>        -0.1783
     18 C15        -3.6186   -0.1107    4.3387 C.ar      1 <0>         0.1963
     19 O2         -4.4368    0.4985    5.2159 O.3       1 <0>        -0.1954
     20 C16        -5.7747    0.3342    5.2273 C.2       1 <0>         0.0991
     21 C17        -6.8087    0.9230    6.1143 C.2       1 <0>         0.5817
     22 O3         -6.5850    1.6949    7.0255 O.2       1 <0>        -0.4700
     23 O4         -0.0790   -0.3165    3.5249 O.3       1 <0>        -0.3015
     24 C18         0.7224   -1.0006    2.5596 C.3       1 <0>         0.0202
     25 C19        -8.3687   -1.8064    4.9827 C.ar      1 <0>        -0.1120
     26 C20        -8.1444   -2.3148    6.2485 C.ar      1 <0>        -0.0902
     27 C21        -8.6080   -3.5740    6.5800 C.ar      1 <0>        -0.1084
     28 C22        -9.2867   -4.3302    5.6411 C.ar      1 <0>        -0.0209
     29 C23        -9.5059   -3.8232    4.3726 C.ar      1 <0>        -0.1053
     30 C24        -9.0468   -2.5616    4.0441 C.ar      1 <0>        -0.0725
     31 Cl1        -9.8626   -5.9150    6.0542 Cl        1 <0>        -0.0524
     32 H2        -10.8293    4.7323    7.6511 H         1 <0>         0.0813
     33 H3         -9.7624    4.7915    6.2276 H         1 <0>         0.0799
     34 H4        -11.2081    5.8272    6.2999 H         1 <0>         0.1077
     35 H5        -11.5077    3.8134    4.8222 H         1 <0>         0.1320
     36 H6        -12.6708    3.8724    6.1683 H         1 <0>         0.1333
     37 H7        -12.5442    1.4790    5.1285 H         1 <0>         0.1343
     38 H8        -11.7217    0.4196    6.2988 H         1 <0>         0.1290
     39 H9        -12.9418    1.5103    8.1547 H         1 <0>         0.0818
     40 H10       -13.7521    2.5899    6.9945 H         1 <0>         0.0810
     41 H11       -14.0796    0.8407    6.9608 H         1 <0>         0.1080
     42 H12        -9.1771    2.9068    5.8128 H         1 <0>         0.1376
     43 H13       -10.0557    1.8612    4.6713 H         1 <0>         0.1389
     44 H14        -9.9957    0.0104    6.3204 H         1 <0>         0.1149
     45 H15        -9.1171    1.0560    7.4619 H         1 <0>         0.1153
     46 H16        -3.6980   -2.2740    1.7015 H         1 <0>         0.1515
     47 H17        -1.2877   -1.8750    1.8078 H         1 <0>         0.1492
     48 H18        -1.8268    0.7584    5.1357 H         1 <0>         0.1582
     49 H19         0.5927   -2.0765    2.6765 H         1 <0>         0.0653
     50 H20         1.7708   -0.7426    2.7093 H         1 <0>         0.1120
     51 H21         0.4150   -0.7045    1.5566 H         1 <0>         0.0652
     52 H22        -7.6107   -1.7261    6.9800 H         1 <0>         0.1259
     53 H23        -8.4366   -3.9693    7.5703 H         1 <0>         0.1394
     54 H24       -10.0353   -4.4132    3.6391 H         1 <0>         0.1421
     55 H25        -9.2175   -2.1658    3.0538 H         1 <0>         0.1393
     56 N2        -11.1432    2.4412    6.3984 N.4       1 <0>        -0.3941
     57 H26       -10.9757    2.5070    7.4093 H         1 <0>         0.4282
@<TRIPOS>BOND
     1    1    2 1
     2    1   32 1
     3    1   33 1
     4    1   34 1
     5    2   35 1
     6    2   36 1
     7    2   56 1
     8    3    4 1
     9    3   37 1
    10    3   38 1
    11    3   56 1
    12    4   39 1
    13    4   40 1
    14    4   41 1
    15    5    6 1
    16    5   42 1
    17    5   43 1
    18    5   56 1
    19    6    7 1
    20    6   44 1
    21    6   45 1
    22    7   21 am
    23    7    8 1
    24    8    9 1
    25    8   10 1
    26    8   25 1
    27   10   20 2
    28   10   11 1
    29   11   12 2
    30   11   13 1
    31   13   18 ar
    32   13   14 ar
    33   14   15 ar
    34   14   46 1
    35   15   16 ar
    36   15   47 1
    37   16   17 ar
    38   16   23 1
    39   17   18 ar
    40   17   48 1
    41   18   19 1
    42   19   20 1
    43   20   21 1
    44   21   22 2
    45   23   24 1
    46   24   49 1
    47   24   50 1
    48   24   51 1
    49   25   30 ar
    50   25   26 ar
    51   26   27 ar
    52   26   52 1
    53   27   28 ar
    54   27   53 1
    55   28   29 ar
    56   28   31 1
    57   29   30 ar
    58   29   54 1
    59   30   55 1
    60   56   57 1
@<TRIPOS>MOLECULE
ZINC19225159
   50    53     0     0     0
SMALL
USER_CHARGES
6-chloro-N,N-dimethyl-3-[[methyl-[[2-(2-thienyl)thiazol-4-yl]methyl]amino]methyl]imidazo[1,2-a]pyridine-2-carboxamide
@<TRIPOS>ATOM
      1 C1         -4.3835   -2.4503   -3.1399 C.3       1 <0>         0.0687
      2 N1         -3.8594   -1.2447   -3.7864 N.am      1 <0>        -0.5818
      3 C2         -4.5481   -0.6786   -4.9489 C.3       1 <0>         0.0212
      4 C3         -2.7437   -0.6563   -3.3116 C.2       1 <0>         0.5922
      5 O1         -2.1026   -1.1921   -2.4282 O.2       1 <0>        -0.5525
      6 C4         -2.3000    0.6384   -3.8639 C.2       1 <0>         0.0705
      7 C5         -1.1336    1.2814   -3.5611 C.2       1 <0>        -0.0762
      8 N2         -1.1162    2.4384   -4.2791 N.pl3     1 <0>        -0.3417
      9 C6         -0.2011    3.4502   -4.3710 C.2       1 <0>         0.0360
     10 C7         -0.4247    4.5080   -5.1787 C.2       1 <0>        -0.0287
     11 C8         -1.6029    4.5807   -5.9435 C.2       1 <0>        -0.0779
     12 C9         -2.5189    3.5800   -5.8666 C.2       1 <0>        -0.0557
     13 C10        -2.2725    2.4794   -5.0173 C.2       1 <0>         0.2590
     14 N3         -2.9746    1.3902   -4.7532 N.2       1 <0>        -0.4457
     15 Cl1         0.7476    5.7848   -5.2745 Cl        1 <0>        -0.0028
     16 C11        -0.0693    0.8035   -2.6072 C.3       1 <0>         0.0851
     17 N4         -0.3579    1.3089   -1.2584 N.4       1 <0>        -0.3976
     18 C12        -0.2405    2.7723   -1.2084 C.3       1 <0>        -0.0499
     19 C13         0.5156    0.6762   -0.2611 C.3       1 <0>         0.0790
     20 C14         0.0342    1.0274    1.1231 C.2       1 <0>        -0.0004
     21 C15        -0.7950    0.1823    1.7896 C.2       1 <0>        -0.1757
     22 S1         -1.0256    1.0813    3.3183 S.3       1 <0>         0.1123
     23 C16         0.0054    2.4825    2.9051 C.2       1 <0>         0.2148
     24 N5          0.4200    2.1479    1.6886 N.2       1 <0>        -0.5059
     25 C17         0.3150    3.6810    3.7006 C.2       1 <0>        -0.1343
     26 C18        -0.1179    4.0200    4.9577 C.2       1 <0>        -0.0886
     27 C19         0.3138    5.2054    5.5077 C.2       1 <0>        -0.1684
     28 C20         1.1424    6.0066    4.7883 C.2       1 <0>        -0.1390
     29 S2          1.3456    5.0764    3.2782 S.3       1 <0>         0.1307
     30 H1         -3.7375   -2.7220   -2.2921 H         1 <0>         0.0922
     31 H2         -4.4029   -3.2766   -3.8657 H         1 <0>         0.0723
     32 H3         -5.4037   -2.2575   -2.7765 H         1 <0>         0.0719
     33 H4         -4.0105    0.2172   -5.2932 H         1 <0>         0.1446
     34 H5         -5.5758   -0.4044   -4.6686 H         1 <0>         0.0673
     35 H6         -4.5750   -1.4236   -5.7578 H         1 <0>         0.0644
     36 H7          0.7070    3.4048   -3.7882 H         1 <0>         0.1774
     37 H8         -1.7789    5.4285   -6.5889 H         1 <0>         0.1689
     38 H9         -3.4266    3.6259   -6.4500 H         1 <0>         0.1779
     39 H10        -0.0577   -0.2963   -2.5920 H         1 <0>         0.1718
     40 H11         0.9120    1.1760   -2.9362 H         1 <0>         0.1354
     41 H12        -0.4612    3.1232   -0.1895 H         1 <0>         0.1328
     42 H13        -0.9549    3.2217   -1.9139 H         1 <0>         0.1067
     43 H14         0.7825    3.0677   -1.4844 H         1 <0>         0.1218
     44 H15         0.4907   -0.4157   -0.3920 H         1 <0>         0.1525
     45 H16         1.5459    1.0380   -0.3938 H         1 <0>         0.1424
     46 H17        -1.2023   -0.7693    1.4813 H         1 <0>         0.2140
     47 H18        -0.7816    3.3680    5.5061 H         1 <0>         0.1423
     48 H19        -0.0060    5.4975    6.4970 H         1 <0>         0.1502
     49 H20         1.5682    6.9612    5.0600 H         1 <0>         0.1995
     50 H21        -1.3972    1.0447   -1.0135 H         1 <0>         0.4468
@<TRIPOS>BOND
     1    1    2 1
     2    1   30 1
     3    1   31 1
     4    1   32 1
     5    2    3 1
     6    2    4 am
     7    3   33 1
     8    3   34 1
     9    3   35 1
    10    4    5 2
    11    4    6 1
    12    6   14 1
    13    6    7 2
    14    7    8 1
    15    7   16 1
    16    8   13 1
    17    8    9 1
    18    9   10 2
    19    9   36 1
    20   10   11 1
    21   10   15 1
    22   11   12 2
    23   11   37 1
    24   12   13 1
    25   12   38 1
    26   13   14 2
    27   16   17 1
    28   16   39 1
    29   16   40 1
    30   17   18 1
    31   17   19 1
    32   17   50 1
    33   18   41 1
    34   18   42 1
    35   18   43 1
    36   19   20 1
    37   19   44 1
    38   19   45 1
    39   20   24 1
    40   20   21 2
    41   21   22 1
    42   21   46 1
    43   22   23 1
    44   23   24 2
    45   23   25 1
    46   25   29 1
    47   25   26 2
    48   26   27 1
    49   26   47 1
    50   27   28 2
    51   27   48 1
    52   28   29 1
    53   28   49 1
@<TRIPOS>MOLECULE
ZINC36341664
   63    66     0     0     0
SMALL
USER_CHARGES

@<TRIPOS>ATOM
      1 C1         -0.0187    1.5258    0.0104 C.3       1 <0>        -0.1875
      2 C2          0.0021   -0.0041    0.0020 C.3       1 <0>         0.0271
      3 H1         -1.0207   -0.3809    0.0098 H         1 <0>         0.1381
      4 C3          0.7171   -0.4969   -1.2579 C.3       1 <0>        -0.1389
      5 C4          0.7351   -2.0282   -1.2620 C.3       1 <0>        -0.1389
      6 C5          1.4100   -2.5244    0.0200 C.3       1 <0>        -0.1404
      7 C6          0.6693   -1.9564    1.2325 C.3       1 <0>        -0.0194
      8 N1          0.7108   -0.4897    1.1921 N.4       1 <0>        -0.3687
      9 C7          0.0674    0.0497    2.3975 C.3       1 <0>        -0.0247
     10 C8          0.8652   -0.3469    3.6130 C.2       1 <0>         0.5406
     11 O1          1.8710   -1.0134    3.4874 O.2       1 <0>        -0.5034
     12 N2          0.4613    0.0390    4.8395 N.am      1 <0>        -0.4497
     13 C9          1.1468   -0.2726    6.1039 C.3       1 <0>         0.1696
     14 H2          2.1507    0.1520    6.1107 H         1 <0>         0.1187
     15 C10         0.2638    0.4052    7.1703 C.3       1 <0>        -0.1312
     16 C11        -0.8507    1.0407    6.3702 C.2       1 <0>         0.1951
     17 N3         -0.6703    0.8032    5.1171 N.2       1 <0>        -0.2726
     18 C12        -1.9685    1.8179    6.9366 C.ar      1 <0>        -0.0696
     19 C13        -2.0536    2.0206    8.3163 C.ar      1 <0>        -0.0479
     20 C14        -3.1012    2.7482    8.8401 C.ar      1 <0>        -0.1546
     21 C15        -4.0686    3.2780    8.0007 C.ar      1 <0>         0.1340
     22 C16        -3.9898    3.0799    6.6312 C.ar      1 <0>        -0.1589
     23 C17        -2.9435    2.3593    6.0952 C.ar      1 <0>        -0.0431
     24 F1         -5.0927    3.9901    8.5197 F         1 <0>        -0.1276
     25 C18         1.2012   -1.7624    6.3245 C.ar      1 <0>        -0.0939
     26 C19         0.3482   -2.5956    5.6267 C.ar      1 <0>        -0.1026
     27 C20         0.3987   -3.9665    5.8294 C.ar      1 <0>         0.0979
     28 C21         1.3055   -4.5013    6.7327 C.ar      1 <0>        -0.1566
     29 C22         2.1582   -3.6683    7.4302 C.ar      1 <0>        -0.1584
     30 C23         2.1114   -2.2974    7.2236 C.ar      1 <0>         0.1126
     31 O2          2.9547   -1.4777    7.9062 O.3       1 <0>        -0.3158
     32 C24         3.8661   -2.0969    8.8162 C.3       1 <0>         0.0251
     33 O3         -0.4412   -4.7866    5.1429 O.3       1 <0>        -0.3197
     34 C25        -0.3344   -6.1880    5.4014 C.3       1 <0>         0.0252
     35 H3          1.0039    1.9031    0.0027 H         1 <0>         0.0822
     36 H4         -0.5459    1.8868   -0.8726 H         1 <0>         0.1090
     37 H5         -0.5289    1.8773    0.9072 H         1 <0>         0.0827
     38 H6          0.1888   -0.1368   -2.1407 H         1 <0>         0.1135
     39 H7          1.7401   -0.1209   -1.2665 H         1 <0>         0.0886
     40 H8         -0.2870   -2.4047   -1.3051 H         1 <0>         0.0817
     41 H9          1.2925   -2.3839   -2.1285 H         1 <0>         0.0949
     42 H10         1.3770   -3.6135    0.0506 H         1 <0>         0.1113
     43 H11         2.4474   -2.1904    0.0379 H         1 <0>         0.0879
     44 H12        -0.3678   -2.2912    1.2138 H         1 <0>         0.1250
     45 H13         1.1471   -2.3079    2.1470 H         1 <0>         0.1454
     46 H14         0.0236    1.1368    2.3305 H         1 <0>         0.1665
     47 H15        -0.9432   -0.3502    2.4799 H         1 <0>         0.1617
     48 H16        -0.1367   -0.3356    7.8623 H         1 <0>         0.1181
     49 H17         0.8299    1.1657    7.7083 H         1 <0>         0.1228
     50 H18        -1.3005    1.6079    8.9712 H         1 <0>         0.1432
     51 H19        -3.1682    2.9052    9.9065 H         1 <0>         0.1484
     52 H20        -4.7469    3.4946    5.9822 H         1 <0>         0.1459
     53 H21        -2.8805    2.2097    5.0275 H         1 <0>         0.1419
     54 H22        -0.3580   -2.1792    4.9237 H         1 <0>         0.1230
     55 H23         1.3445   -5.5689    6.8908 H         1 <0>         0.1370
     56 H24         2.8637   -4.0845    8.1340 H         1 <0>         0.1393
     57 H25         3.3065   -2.6408    9.5772 H         1 <0>         0.0594
     58 H26         4.5078   -2.7901    8.2723 H         1 <0>         0.0580
     59 H27         4.4792   -1.3323    9.2931 H         1 <0>         0.1063
     60 H28        -1.0587   -6.7264    4.7901 H         1 <0>         0.1044
     61 H29         0.6719   -6.5272    5.1556 H         1 <0>         0.0573
     62 H30        -0.5350   -6.3794    6.4555 H         1 <0>         0.0589
     63 H31         1.6711   -0.1818    1.1594 H         1 <0>         0.4257
@<TRIPOS>BOND
     1    1    2 1
     2    1   35 1
     3    1   36 1
     4    1   37 1
     5    2    3 1
     6    2    8 1
     7    2    4 1
     8    4    5 1
     9    4   38 1
    10    4   39 1
    11    5    6 1
    12    5   40 1
    13    5   41 1
    14    6    7 1
    15    6   42 1
    16    6   43 1
    17    7    8 1
    18    7   44 1
    19    7   45 1
    20    8    9 1
    21    8   63 1
    22    9   10 1
    23    9   46 1
    24    9   47 1
    25   10   11 2
    26   10   12 am
    27   12   17 1
    28   12   13 1
    29   13   14 1
    30   13   15 1
    31   13   25 1
    32   15   16 1
    33   15   48 1
    34   15   49 1
    35   16   17 2
    36   16   18 1
    37   18   23 ar
    38   18   19 ar
    39   19   20 ar
    40   19   50 1
    41   20   21 ar
    42   20   51 1
    43   21   22 ar
    44   21   24 1
    45   22   23 ar
    46   22   52 1
    47   23   53 1
    48   25   30 ar
    49   25   26 ar
    50   26   27 ar
    51   26   54 1
    52   27   28 ar
    53   27   33 1
    54   28   29 ar
    55   28   55 1
    56   29   30 ar
    57   29   56 1
    58   30   31 1
    59   31   32 1
    60   32   57 1
    61   32   58 1
    62   32   59 1
    63   33   34 1
    64   34   60 1
    65   34   61 1
    66   34   62 1
@<TRIPOS>MOLECULE
ZINC38990178
   51    54     0     0     0
SMALL
USER_CHARGES

@<TRIPOS>ATOM
      1 C1          0.2313    1.0270   -0.5081 C.3       1 <0>         0.0232
      2 O1          0.2280   -0.3964   -0.3823 O.3       1 <0>        -0.3132
      3 C2          0.7936   -0.9185    0.7390 C.ar      1 <0>         0.1240
      4 C3          1.3344   -0.0761    1.6990 C.ar      1 <0>        -0.1725
      5 C4          1.9090   -0.6054    2.8380 C.ar      1 <0>        -0.0934
      6 C5          1.9451   -1.9813    3.0218 C.ar      1 <0>         0.1111
      7 C6          1.4034   -2.8239    2.0601 C.ar      1 <0>        -0.1112
      8 C7          0.8242   -2.2927    0.9244 C.ar      1 <0>        -0.1250
      9 N1          2.5274   -2.5185    4.1753 N.pl3     1 <0>        -0.9270
     10 C8          2.0935   -3.8258    4.6742 C.3       1 <0>         0.1255
     11 C9          0.5986   -3.7780    4.9967 C.3       1 <0>        -0.1640
     12 H1          0.0730   -3.4859    4.0875 H         1 <0>         0.1869
     13 C10         0.1559   -5.1821    5.3592 C.2       1 <0>         0.1453
     14 C11        -0.4065   -5.3624    6.5880 C.ar      1 <0>        -0.1855
     15 C12        -0.8621   -6.6847    7.0184 C.ar      1 <0>         0.0208
     16 C13        -1.4167   -6.8169    8.2510 C.ar      1 <0>        -0.1683
     17 C14        -1.5584   -5.7230    9.1051 C.ar      1 <0>         0.0947
     18 C15        -1.1563   -4.4706    8.7650 C.ar      1 <0>        -0.2297
     19 C16        -0.5680   -4.2253    7.5106 C.ar      1 <0>         0.3572
     20 N2         -0.1764   -2.9927    7.1880 N.am      1 <0>        -0.5934
     21 C17         0.3808   -2.6934    6.0274 C.2       1 <0>         0.4964
     22 O2          0.7178   -1.5489    5.7899 O.2       1 <0>        -0.4009
     23 S1          3.7071   -1.6765    4.9763 S.o2      1 <0>         2.6820
     24 O3          4.5536   -2.6423    5.5846 O.2       1 <0>        -0.9378
     25 O4          4.1961   -0.6989    4.0683 O.2       1 <0>        -0.9227
     26 C18         2.9219   -0.7985    6.2868 C.ar      1 <0>        -0.6691
     27 C19         2.4371    0.4778    6.0698 C.ar      1 <0>         0.0351
     28 C20         1.8206    1.1673    7.0967 C.ar      1 <0>        -0.1609
     29 C21         1.6886    0.5792    8.3433 C.ar      1 <0>         0.1631
     30 C22         2.1746   -0.6992    8.5594 C.ar      1 <0>        -0.1834
     31 C23         2.7860   -1.3887    7.5295 C.ar      1 <0>        -0.0106
     32 F1          1.0866    1.2523    9.3480 F         1 <0>        -0.1241
     33 H2          1.2591    1.3899   -0.5023 H         1 <0>         0.0606
     34 H3         -0.2487    1.3101   -1.4449 H         1 <0>         0.1063
     35 H4         -0.3140    1.4668    0.3270 H         1 <0>         0.0576
     36 H5          1.3066    0.9940    1.5558 H         1 <0>         0.1395
     37 H6          2.3303    0.0506    3.5853 H         1 <0>         0.1347
     38 H7          1.4311   -3.8942    2.2022 H         1 <0>         0.1351
     39 H8          0.3986   -2.9477    0.1786 H         1 <0>         0.1413
     40 H9          2.2770   -4.5843    3.9132 H         1 <0>         0.1276
     41 H10         2.6521   -4.0740    5.5767 H         1 <0>         0.1169
     42 H11         0.2805   -6.0058    4.6718 H         1 <0>         0.2054
     43 H12        -0.7593   -7.5402    6.3673 H         1 <0>         0.1766
     44 H13        -1.7557   -7.7893    8.5766 H         1 <0>         0.1659
     45 H14        -2.0060   -5.8779   10.0757 H         1 <0>         0.1672
     46 H15        -1.2889   -3.6572    9.4629 H         1 <0>         0.1687
     47 H16         2.5405    0.9365    5.0975 H         1 <0>         0.1486
     48 H17         1.4423    2.1645    6.9271 H         1 <0>         0.1502
     49 H18         2.0725   -1.1588    9.5314 H         1 <0>         0.1460
     50 H19         3.1611   -2.3876    7.6966 H         1 <0>         0.1420
     51 H20        -0.3071   -2.2821    7.8352 H         1 <0>         0.4370
@<TRIPOS>BOND
     1    1    2 1
     2    1   33 1
     3    1   34 1
     4    1   35 1
     5    2    3 1
     6    3    8 ar
     7    3    4 ar
     8    4    5 ar
     9    4   36 1
    10    5    6 ar
    11    5   37 1
    12    6    7 ar
    13    6    9 1
    14    7    8 ar
    15    7   38 1
    16    8   39 1
    17    9   10 1
    18    9   23 1
    19   10   11 1
    20   10   40 1
    21   10   41 1
    22   11   12 1
    23   11   21 1
    24   11   13 1
    25   13   14 2
    26   13   42 1
    27   14   19 ar
    28   14   15 ar
    29   15   16 ar
    30   15   43 1
    31   16   17 ar
    32   16   44 1
    33   17   18 ar
    34   17   45 1
    35   18   19 ar
    36   18   46 1
    37   19   20 2
    38   20   21 am
    39   20   51 1
    40   21   22 2
    41   23   24 2
    42   23   25 2
    43   23   26 1
    44   26   31 ar
    45   26   27 ar
    46   27   28 ar
    47   27   47 1
    48   28   29 ar
    49   28   48 1
    50   29   30 ar
    51   29   32 1
    52   30   31 ar
    53   30   49 1
    54   31   50 1
@<TRIPOS>MOLECULE
ZINC63491846
   60    64     0     0     0
SMALL
USER_CHARGES

@<TRIPOS>ATOM
      1 C1          0.3981    0.9826   -0.8078 C.3       1 <0>         0.0145
      2 O1          0.2848   -0.4417   -0.8323 O.3       1 <0>        -0.3015
      3 C2         -0.9563   -0.9651   -0.6499 C.ar      1 <0>         0.1044
      4 C3         -2.0399   -0.0905   -0.4566 C.ar      1 <0>        -0.0246
      5 C4         -3.3028   -0.5302   -0.2715 C.ar      1 <0>        -0.1552
      6 C5         -3.5817   -1.9688   -0.2682 C.ar      1 <0>         0.3247
      7 N1         -4.6929   -2.6454   -0.0943 N.pl3     1 <0>        -0.5594
      8 C6         -4.4025   -4.0669   -0.2661 C.3       1 <0>         0.0832
      9 H1         -4.9016   -4.4555   -1.1538 H         1 <0>         0.1850
     10 C7         -4.7919   -4.8834    0.9716 C.3       1 <0>         0.2026
     11 H2         -5.8718   -5.0304    0.9919 H         1 <0>         0.1452
     12 N2         -4.1136   -6.1861    0.8847 N.am      1 <0>        -0.6069
     13 C8         -2.6500   -6.2638    0.8279 C.3       1 <0>         0.0778
     14 C9         -2.1445   -5.4678   -0.3893 C.3       1 <0>        -0.1033
     15 C10        -2.8931   -4.1546   -0.4183 C.2       1 <0>         0.0511
     16 C11        -2.4381   -2.8948   -0.4654 C.ar      1 <0>        -0.1236
     17 C12        -1.1068   -2.3106   -0.6662 C.ar      1 <0>        -0.0928
     18 C13        -4.8439   -7.3186    0.8573 C.2       1 <0>         0.5798
     19 O2         -6.0574   -7.2584    0.8102 O.2       1 <0>        -0.5090
     20 C14        -4.1705   -8.6318    0.8845 C.ar      1 <0>        -0.1457
     21 C15        -3.1021   -8.8527    1.7570 C.ar      1 <0>        -0.0856
     22 C16        -2.4748  -10.0793    1.7816 C.ar      1 <0>        -0.1798
     23 C17        -2.9017  -11.0978    0.9402 C.ar      1 <0>         0.1382
     24 C18        -3.9669  -10.8840    0.0668 C.ar      1 <0>         0.1012
     25 C19        -4.6041   -9.6585    0.0417 C.ar      1 <0>        -0.1184
     26 O3         -4.3822  -11.8834   -0.7568 O.3       1 <0>        -0.2990
     27 C20        -5.4793  -11.5944   -1.6256 C.3       1 <0>         0.0224
     28 O4         -2.2800  -12.3048    0.9678 O.3       1 <0>        -0.2967
     29 C21        -1.1956  -12.4551    1.8863 C.3       1 <0>         0.0211
     30 C22        -4.3523   -4.1605    2.2187 C.ar      1 <0>        -0.1468
     31 C23        -3.0112   -3.8985    2.4286 C.ar      1 <0>        -0.0963
     32 C24        -2.6069   -3.2352    3.5716 C.ar      1 <0>        -0.1472
     33 C25        -3.5455   -2.8330    4.5066 C.ar      1 <0>         0.1253
     34 C26        -4.8884   -3.0959    4.2952 C.ar      1 <0>        -0.1453
     35 C27        -5.2909   -3.7547    3.1490 C.ar      1 <0>        -0.0625
     36 F1         -3.1514   -2.1848    5.6246 F         1 <0>        -0.1261
     37 H3          1.4385    1.2671   -0.9653 H         1 <0>         0.1172
     38 H4         -0.2190    1.4099   -1.5981 H         1 <0>         0.0645
     39 H5          0.0614    1.3573    0.1589 H         1 <0>         0.0645
     40 H6         -1.8549    0.9735   -0.4558 H         1 <0>         0.1678
     41 H7         -4.1060    0.1770   -0.1259 H         1 <0>         0.1695
     42 H8         -2.2277   -5.8415    1.7397 H         1 <0>         0.0981
     43 H9         -2.3444   -7.3059    0.7335 H         1 <0>         0.1341
     44 H10        -1.0736   -5.2867   -0.2978 H         1 <0>         0.1275
     45 H11        -2.3537   -6.0172   -1.3072 H         1 <0>         0.1290
     46 H12        -0.2510   -2.9507   -0.8221 H         1 <0>         0.1657
     47 H13        -2.7675   -8.0619    2.4121 H         1 <0>         0.1358
     48 H14        -1.6490  -10.2487    2.4566 H         1 <0>         0.1477
     49 H15        -5.4326   -9.4930   -0.6311 H         1 <0>         0.1461
     50 H16        -5.7084  -12.4744   -2.2266 H         1 <0>         0.1082
     51 H17        -6.3518  -11.3231   -1.0313 H         1 <0>         0.0594
     52 H18        -5.2145  -10.7652   -2.2817 H         1 <0>         0.0563
     53 H19        -0.7892  -13.4634    1.8067 H         1 <0>         0.1086
     54 H20        -0.4168  -11.7298    1.6508 H         1 <0>         0.0602
     55 H21        -1.5537  -12.2868    2.9019 H         1 <0>         0.0606
     56 H22        -2.2792   -4.2127    1.6994 H         1 <0>         0.1374
     57 H23        -1.5591   -3.0310    3.7356 H         1 <0>         0.1450
     58 H24        -5.6214   -2.7829    5.0240 H         1 <0>         0.1479
     59 H25        -6.3387   -3.9559    2.9817 H         1 <0>         0.1423
     60 H26        -5.5609   -2.2655    0.1135 H         1 <0>         0.4560
@<TRIPOS>BOND
     1    1    2 1
     2    1   37 1
     3    1   38 1
     4    1   39 1
     5    2    3 1
     6    3   17 ar
     7    3    4 ar
     8    4    5 ar
     9    4   40 1
    10    5    6 ar
    11    5   41 1
    12    6   16 ar
    13    6    7 2
    14    7    8 1
    15    7   60 1
    16    8    9 1
    17    8   15 1
    18    8   10 1
    19   10   11 1
    20   10   12 1
    21   10   30 1
    22   12   13 1
    23   12   18 am
    24   13   14 1
    25   13   42 1
    26   13   43 1
    27   14   15 1
    28   14   44 1
    29   14   45 1
    30   15   16 2
    31   16   17 ar
    32   17   46 1
    33   18   19 2
    34   18   20 1
    35   20   25 ar
    36   20   21 ar
    37   21   22 ar
    38   21   47 1
    39   22   23 ar
    40   22   48 1
    41   23   24 ar
    42   23   28 1
    43   24   25 ar
    44   24   26 1
    45   25   49 1
    46   26   27 1
    47   27   50 1
    48   27   51 1
    49   27   52 1
    50   28   29 1
    51   29   53 1
    52   29   54 1
    53   29   55 1
    54   30   35 ar
    55   30   31 ar
    56   31   32 ar
    57   31   56 1
    58   32   33 ar
    59   32   57 1
    60   33   34 ar
    61   33   36 1
    62   34   35 ar
    63   34   58 1
    64   35   59 1
@<TRIPOS>MOLECULE
ZINC02113342
   55    58     0     0     0
SMALL
USER_CHARGES
(acetoxy-trimethyl-dioxo-BLAHyl) benzoate
@<TRIPOS>ATOM
      1 C1          2.7190   -2.9955    3.2867 C.3       1 <0>        -0.1388
      2 C2          3.2980   -3.9125    2.2403 C.2       1 <0>         0.0163
      3 C3          4.6067   -3.9569    2.0585 C.2       1 <0>        -0.2306
      4 C4          5.3503   -4.7750    1.0115 C.3       1 <0>        -0.0176
      5 H1          5.1208   -5.8371    1.0972 H         1 <0>         0.1184
      6 C5          4.9199   -4.2211   -0.3385 C.3       1 <0>         0.0994
      7 H2          4.8409   -3.1359   -0.2749 H         1 <0>         0.1049
      8 C6          3.5807   -4.7976   -0.7694 C.3       1 <0>        -0.1127
      9 H3          3.6138   -5.8782   -0.6307 H         1 <0>         0.1302
     10 C7          2.3806   -4.2620   -0.0445 C.3       1 <0>         0.1237
     11 H4          1.4739   -4.5914   -0.5519 H         1 <0>         0.1114
     12 C8          2.3737   -4.7802    1.4006 C.3       1 <0>        -0.1186
     13 O1          2.4293   -2.8108   -0.0367 O.3       1 <0>        -0.3313
     14 C9          1.2502   -2.1594   -0.0219 C.2       1 <0>         0.5159
     15 O2          0.2099   -2.7865   -0.0158 O.2       1 <0>        -0.5022
     16 C10         1.2224   -0.6824   -0.0133 C.ar      1 <0>        -0.1278
     17 C11         0.0021   -0.0041    0.0020 C.ar      1 <0>        -0.0548
     18 C12        -0.0166    1.3752    0.0096 C.ar      1 <0>        -0.1306
     19 C13         1.1703    2.0864    0.0021 C.ar      1 <0>        -0.0807
     20 C14         2.3831    1.4205   -0.0130 C.ar      1 <0>        -0.1321
     21 C15         2.4163    0.0415   -0.0207 C.ar      1 <0>        -0.0605
     22 C16         3.6062   -4.5222   -2.2820 C.3       1 <0>         0.0758
     23 C17         5.0920   -4.3672   -2.5851 C.2       1 <0>         0.4623
     24 O3          5.5635   -4.1102   -3.6674 O.2       1 <0>        -0.3964
     25 O4          5.8007   -4.5642   -1.4435 O.3       1 <0>        -0.3259
     26 C18         3.0180   -5.7039   -3.0556 C.3       1 <0>        -0.1787
     27 O5          2.8898   -3.2978   -2.5918 O.3       1 <0>        -0.3259
     28 C19         2.8327   -2.9353   -3.8829 C.2       1 <0>         0.4491
     29 O6          3.3638   -3.6183   -4.7263 O.2       1 <0>        -0.4767
     30 C20         2.1063   -1.6762   -4.2806 C.3       1 <0>        -0.1447
     31 C21         6.8131   -4.4886    1.2446 C.2       1 <0>        -0.0329
     32 C22         6.9530   -3.6353    2.2476 C.2       1 <0>        -0.2362
     33 C23         5.6530   -3.2466    2.8079 C.2       1 <0>         0.4198
     34 O7          5.4733   -2.4728    3.7296 O.2       1 <0>        -0.4424
     35 C24         7.9478   -5.0862    0.4533 C.3       1 <0>        -0.1118
     36 H5          2.5079   -2.0233    2.8412 H         1 <0>         0.0820
     37 H6          1.7958   -3.4251    3.6755 H         1 <0>         0.0720
     38 H7          3.4344   -2.8748    4.1001 H         1 <0>         0.0934
     39 H8          1.3618   -4.7278    1.8024 H         1 <0>         0.1000
     40 H9          2.7230   -5.8125    1.4199 H         1 <0>         0.1065
     41 H10        -0.9250   -0.5580    0.0075 H         1 <0>         0.1377
     42 H11        -0.9599    1.9012    0.0169 H         1 <0>         0.1339
     43 H12         1.1499    3.1662    0.0081 H         1 <0>         0.1307
     44 H13         3.3058    1.9818   -0.0188 H         1 <0>         0.1319
     45 H14         3.3636   -0.4770   -0.0322 H         1 <0>         0.1343
     46 H15         1.9860   -5.8648   -2.7438 H         1 <0>         0.0822
     47 H16         3.0455   -5.4886   -4.1238 H         1 <0>         0.1023
     48 H17         3.6035   -6.6001   -2.8504 H         1 <0>         0.0827
     49 H18         2.8001   -0.8358   -4.2642 H         1 <0>         0.1062
     50 H19         1.7006   -1.7928   -5.2856 H         1 <0>         0.1072
     51 H20         1.2926   -1.4894   -3.5798 H         1 <0>         0.0916
     52 H21         7.9038   -3.2709    2.6077 H         1 <0>         0.1475
     53 H22         8.1732   -4.4456   -0.3993 H         1 <0>         0.0882
     54 H23         8.8297   -5.1693    1.0886 H         1 <0>         0.0762
     55 H24         7.6613   -6.0762    0.0982 H         1 <0>         0.0761
@<TRIPOS>BOND
     1    1    2 1
     2    1   36 1
     3    1   37 1
     4    1   38 1
     5    2   12 1
     6    2    3 2
     7    3   33 1
     8    3    4 1
     9    4    5 1
    10    4    6 1
    11    4   31 1
    12    6    7 1
    13    6   25 1
    14    6    8 1
    15    8    9 1
    16    8   10 1
    17    8   22 1
    18   10   11 1
    19   10   12 1
    20   10   13 1
    21   12   39 1
    22   12   40 1
    23   13   14 1
    24   14   15 2
    25   14   16 1
    26   16   21 ar
    27   16   17 ar
    28   17   18 ar
    29   17   41 1
    30   18   19 ar
    31   18   42 1
    32   19   20 ar
    33   19   43 1
    34   20   21 ar
    35   20   44 1
    36   21   45 1
    37   22   23 1
    38   22   26 1
    39   22   27 1
    40   23   24 2
    41   23   25 1
    42   26   46 1
    43   26   47 1
    44   26   48 1
    45   27   28 1
    46   28   29 2
    47   28   30 1
    48   30   49 1
    49   30   50 1
    50   30   51 1
    51   31   32 2
    52   31   35 1
    53   32   33 1
    54   32   52 1
    55   33   34 2
    56   35   53 1
    57   35   54 1
    58   35   55 1
@<TRIPOS>MOLECULE
ZINC15615059
   62    64     0     0     0
SMALL
USER_CHARGES
ethyl (3S)-1-[1-(2,4-dimethylphenyl)sulfonylpiperidine-4-carbonyl]piperidine-3-carboxylate
@<TRIPOS>ATOM
      1 C1          5.1956    3.6996   -1.7630 C.3       1 <0>        -0.1543
      2 C2          3.9140    2.8654   -1.8129 C.3       1 <0>         0.0616
      3 O1          3.1426    3.0905   -0.6036 O.3       1 <0>        -0.3547
      4 C3          1.9809    2.4278   -0.4896 C.2       1 <0>         0.4704
      5 O2          1.6206    1.6841   -1.3712 O.2       1 <0>        -0.5037
      6 C4          1.1260    2.6112    0.7378 C.3       1 <0>        -0.0974
      7 H1          1.6877    2.3085    1.6215 H         1 <0>         0.1154
      8 C5          0.7258    4.0828    0.8663 C.3       1 <0>        -0.1126
      9 C6         -0.1151    4.2760    2.1303 C.3       1 <0>        -0.1323
     10 C7         -1.3913    3.4354    2.0232 C.3       1 <0>         0.1054
     11 N1         -1.0204    2.0396    1.7529 N.am      1 <0>        -0.6126
     12 C8         -0.1361    1.7517    0.6149 C.3       1 <0>         0.1197
     13 C9         -1.4794    1.0432    2.5357 C.2       1 <0>         0.5240
     14 O3         -2.1430    1.3002    3.5179 O.2       1 <0>        -0.5308
     15 C10        -1.1682   -0.3904    2.1907 C.3       1 <0>        -0.1054
     16 C11        -1.8528   -0.7576    0.8721 C.3       1 <0>        -0.1338
     17 C12        -1.5061   -2.2044    0.5070 C.3       1 <0>         0.1249
     18 N2         -1.8630   -3.0753    1.6351 N.pl3     1 <0>        -0.9962
     19 C13        -1.3314   -2.7588    2.9678 C.3       1 <0>         0.1107
     20 C14        -1.6800   -1.3057    3.3053 C.3       1 <0>        -0.1209
     21 S1         -2.8454   -4.3891    1.4089 S.o2      1 <0>         2.6930
     22 O4         -2.6022   -4.8556    0.0888 O.2       1 <0>        -0.9551
     23 O5         -2.6843   -5.2183    2.5516 O.2       1 <0>        -0.9517
     24 C15        -4.5084   -3.8075    1.4391 C.ar      1 <0>        -0.6891
     25 C16        -5.2600   -3.8022    0.2787 C.ar      1 <0>        -0.0141
     26 C17        -6.5658   -3.3496    0.3032 C.ar      1 <0>        -0.1498
     27 C18        -7.1174   -2.8942    1.4863 C.ar      1 <0>        -0.0232
     28 C19        -6.3644   -2.8950    2.6453 C.ar      1 <0>        -0.1458
     29 C20        -5.0596   -3.3513    2.6216 C.ar      1 <0>         0.0313
     30 C21        -4.2384   -3.3518    3.8852 C.3       1 <0>        -0.1930
     31 C22        -8.5396   -2.3963    1.5120 C.3       1 <0>        -0.1257
     32 H2          4.9386    4.7562   -1.6874 H         1 <0>         0.0675
     33 H3          5.7865    3.4064   -0.8952 H         1 <0>         0.0676
     34 H4          5.7748    3.5306   -2.6708 H         1 <0>         0.0821
     35 H5          4.1710    1.8088   -1.8885 H         1 <0>         0.0720
     36 H6          3.3232    3.1586   -2.6807 H         1 <0>         0.0718
     37 H7          0.1430    4.3781   -0.0062 H         1 <0>         0.0729
     38 H8          1.6228    4.6987    0.9292 H         1 <0>         0.0839
     39 H9         -0.3801    5.3282    2.2336 H         1 <0>         0.0854
     40 H10         0.4583    3.9576    3.0009 H         1 <0>         0.0726
     41 H11        -1.9454    3.4913    2.9602 H         1 <0>         0.0974
     42 H12        -2.0105    3.8131    1.2095 H         1 <0>         0.0705
     43 H13        -0.6517    1.9906   -0.3152 H         1 <0>         0.0848
     44 H14         0.1382    0.6968    0.6202 H         1 <0>         0.0999
     45 H15        -0.0902   -0.5130    2.0864 H         1 <0>         0.1010
     46 H16        -2.9326   -0.6591    0.9830 H         1 <0>         0.0769
     47 H17        -1.5052   -0.0901    0.0835 H         1 <0>         0.0869
     48 H18        -0.4376   -2.2848    0.3071 H         1 <0>         0.0825
     49 H19        -2.0689   -2.5030   -0.3775 H         1 <0>         0.0939
     50 H20        -0.2487   -2.8844    2.9685 H         1 <0>         0.0809
     51 H21        -1.7789   -3.4231    3.7070 H         1 <0>         0.1032
     52 H22        -1.2096   -1.0284    4.2486 H         1 <0>         0.0869
     53 H23        -2.7615   -1.2017    3.3937 H         1 <0>         0.0829
     54 H24        -4.8279   -4.1545   -0.6462 H         1 <0>         0.1423
     55 H25        -7.1540   -3.3486   -0.6025 H         1 <0>         0.1321
     56 H26        -6.7952   -2.5389    3.5694 H         1 <0>         0.1313
     57 H27        -3.6934   -2.4112    3.9647 H         1 <0>         0.0933
     58 H28        -4.8970   -3.4640    4.7465 H         1 <0>         0.0848
     59 H29        -3.5309   -4.1805    3.8585 H         1 <0>         0.1125
     60 H30        -8.5537   -1.3262    1.3053 H         1 <0>         0.0794
     61 H31        -9.1218   -2.9204    0.7541 H         1 <0>         0.0734
     62 H32        -8.9719   -2.5822    2.4952 H         1 <0>         0.0730
@<TRIPOS>BOND
     1    1    2 1
     2    1   32 1
     3    1   33 1
     4    1   34 1
     5    2    3 1
     6    2   35 1
     7    2   36 1
     8    3    4 1
     9    4    5 2
    10    4    6 1
    11    6    7 1
    12    6   12 1
    13    6    8 1
    14    8    9 1
    15    8   37 1
    16    8   38 1
    17    9   10 1
    18    9   39 1
    19    9   40 1
    20   10   11 1
    21   10   41 1
    22   10   42 1
    23   11   12 1
    24   11   13 am
    25   12   43 1
    26   12   44 1
    27   13   14 2
    28   13   15 1
    29   15   20 1
    30   15   16 1
    31   15   45 1
    32   16   17 1
    33   16   46 1
    34   16   47 1
    35   17   18 1
    36   17   48 1
    37   17   49 1
    38   18   19 1
    39   18   21 1
    40   19   20 1
    41   19   50 1
    42   19   51 1
    43   20   52 1
    44   20   53 1
    45   21   22 2
    46   21   23 2
    47   21   24 1
    48   24   29 ar
    49   24   25 ar
    50   25   26 ar
    51   25   54 1
    52   26   27 ar
    53   26   55 1
    54   27   28 ar
    55   27   31 1
    56   28   29 ar
    57   28   56 1
    58   29   30 1
    59   30   57 1
    60   30   58 1
    61   30   59 1
    62   31   60 1
    63   31   61 1
    64   31   62 1
@<TRIPOS>MOLECULE
ZINC01814248
   57    60     0     0     0
SMALL
USER_CHARGES
(5E)-3-(2-methoxyethyl)-5-[[7-methyl-2-(4-methyl-1-piperidyl)-4-oxo-pyrido[1,2-a]pyrimidin-3-yl]methylene]-2-thioxo-thiazolidin-4-one
@<TRIPOS>ATOM
      1 C1          2.8869    7.7155    0.3052 C.3       1 <0>        -0.1115
      2 C2          3.0338    6.2172    0.3733 C.2       1 <0>        -0.1314
      3 C3          4.2763    5.6495    0.6866 C.2       1 <0>        -0.0177
      4 C4          4.4002    4.2931    0.7456 C.2       1 <0>        -0.1387
      5 C5          3.2793    3.4825    0.4912 C.2       1 <0>         0.4150
      6 N1          3.4103    2.1570    0.5513 N.2       1 <0>        -0.5728
      7 C6          2.3868    1.3462    0.3252 C.2       1 <0>         0.4262
      8 C7          1.1224    1.8926    0.0018 C.2       1 <0>        -0.3039
      9 C8          0.9948    3.3009   -0.0583 C.2       1 <0>         0.5464
     10 O1         -0.0769    3.8151   -0.3288 O.2       1 <0>        -0.5109
     11 N2          2.0803    4.0655    0.1885 N.am      1 <0>        -0.4207
     12 C9          1.9666    5.4229    0.1328 C.2       1 <0>         0.1029
     13 C10         0.0125    1.0527   -0.2493 C.2       1 <0>         0.1718
     14 C11        -1.0448    1.0426    0.6138 C.2       1 <0>        -0.2459
     15 C12        -1.2689    1.8273    1.7808 C.2       1 <0>         0.5480
     16 O2         -0.4537    2.6570    2.1440 O.2       1 <0>        -0.4712
     17 N3         -2.3859    1.6299    2.4591 N.am      1 <0>        -0.5213
     18 C13        -3.2899    0.7092    2.0564 C.2       1 <0>         0.2871
     19 S1         -4.7876    0.2905    2.7723 S.2       1 <0>        -0.3095
     20 S2         -2.5286    0.0463    0.5825 S.3       1 <0>         0.0477
     21 C14        -2.6478    2.4198    3.6648 C.3       1 <0>         0.0883
     22 C15        -3.4015    3.6959    3.2848 C.3       1 <0>         0.0458
     23 O3         -4.6898    3.3528    2.7704 O.3       1 <0>        -0.3701
     24 C16        -5.4799    4.4789    2.3834 C.3       1 <0>         0.0282
     25 N4          2.5537   -0.0193    0.4006 N.pl3     1 <0>        -0.4858
     26 C17         3.8360   -0.4260   -0.1882 C.3       1 <0>         0.0587
     27 C18         3.9230   -1.9536   -0.2191 C.3       1 <0>        -0.1135
     28 C19         3.8002   -2.4959    1.2075 C.3       1 <0>        -0.0949
     29 C20         2.4784   -2.0179    1.8149 C.3       1 <0>        -0.1125
     30 C21         2.4333   -0.4885    1.7868 C.3       1 <0>         0.0646
     31 C22         3.8254   -4.0254    1.1770 C.3       1 <0>        -0.1485
     32 H1          3.8542    8.1893    0.5285 H         1 <0>         0.0803
     33 H2          2.1388    8.0444    1.0415 H         1 <0>         0.0797
     34 H3          2.5605    8.0064   -0.7042 H         1 <0>         0.0803
     35 H4          5.1298    6.2823    0.8803 H         1 <0>         0.1575
     36 H5          5.3527    3.8441    0.9857 H         1 <0>         0.1700
     37 H6          1.0129    5.8689   -0.1076 H         1 <0>         0.1828
     38 H7          0.0014    0.4076   -1.1402 H         1 <0>         0.1590
     39 H8         -3.2567    1.8291    4.3650 H         1 <0>         0.1208
     40 H9         -1.6937    2.6861    4.1431 H         1 <0>         0.1154
     41 H10        -3.5194    4.3310    4.1752 H         1 <0>         0.0728
     42 H11        -2.8338    4.2423    2.5172 H         1 <0>         0.0538
     43 H12        -6.4508    4.1314    2.0005 H         1 <0>         0.0904
     44 H13        -4.9557    5.0417    1.5969 H         1 <0>         0.0378
     45 H14        -5.6413    5.1304    3.2549 H         1 <0>         0.0428
     46 H15         3.9094   -0.0342   -1.2134 H         1 <0>         0.0785
     47 H16         4.6615   -0.0244    0.4177 H         1 <0>         0.0601
     48 H17         3.1065   -2.3549   -0.8373 H         1 <0>         0.0747
     49 H18         4.8899   -2.2572   -0.6467 H         1 <0>         0.0744
     50 H19         4.6409   -2.1312    1.8160 H         1 <0>         0.0697
     51 H20         1.6389   -2.4221    1.2302 H         1 <0>         0.0776
     52 H21         2.4041   -2.3696    2.8545 H         1 <0>         0.0749
     53 H22         3.2654   -0.0866    2.3835 H         1 <0>         0.0520
     54 H23         1.4785   -0.1425    2.2094 H         1 <0>         0.0756
     55 H24         3.7371   -4.4141    2.2023 H         1 <0>         0.0556
     56 H25         4.7729   -4.3678    0.7354 H         1 <0>         0.0562
     57 H26         2.9843   -4.3940    0.5714 H         1 <0>         0.0574
@<TRIPOS>BOND
     1    1    2 1
     2    1   32 1
     3    1   33 1
     4    1   34 1
     5    2   12 2
     6    2    3 1
     7    3    4 2
     8    3   35 1
     9    4    5 1
    10    4   36 1
    11    5   11 1
    12    5    6 2
    13    6    7 1
    14    7    8 2
    15    7   25 1
    16    8    9 1
    17    8   13 1
    18    9   10 2
    19    9   11 am
    20   11   12 1
    21   12   37 1
    22   13   14 2
    23   13   38 1
    24   14   20 1
    25   14   15 1
    26   15   16 2
    27   15   17 am
    28   17   18 1
    29   17   21 1
    30   18   19 2
    31   18   20 1
    32   21   22 1
    33   21   39 1
    34   21   40 1
    35   22   23 1
    36   22   41 1
    37   22   42 1
    38   23   24 1
    39   24   43 1
    40   24   44 1
    41   24   45 1
    42   25   30 1
    43   25   26 1
    44   26   27 1
    45   26   46 1
    46   26   47 1
    47   27   28 1
    48   27   48 1
    49   27   49 1
    50   28   29 1
    51   28   31 1
    52   28   50 1
    53   29   30 1
    54   29   51 1
    55   29   52 1
    56   30   53 1
    57   30   54 1
    58   31   55 1
    59   31   56 1
    60   31   57 1
@<TRIPOS>MOLECULE
ZINC39455755
   45    47     0     0     0
SMALL
USER_CHARGES

@<TRIPOS>ATOM
      1 C1         -0.0187    1.5258    0.0104 C.3       1 <0>        -0.1322
      2 C2          0.0021   -0.0041    0.0020 C.3       1 <0>        -0.0706
      3 H1         -1.0108   -0.4062    0.0220 H         1 <0>         0.1620
      4 C3          0.7693   -0.5285   -1.1904 C.2       1 <0>         0.0727
      5 C4          1.8678   -1.2607   -0.9529 C.2       1 <0>        -0.3186
      6 C5          2.2431   -1.4980    0.4574 C.2       1 <0>         0.2826
      7 N1          3.3061   -2.2071    0.7541 N.2       1 <0>        -0.5320
      8 C6          4.0717   -2.7293   -0.1911 C.2       1 <0>         0.4488
      9 N2          3.8371   -2.5849   -1.4732 N.2       1 <0>        -0.5825
     10 C7          2.7959   -1.8913   -1.9451 C.2       1 <0>         0.5531
     11 O1          2.6073   -1.7768   -3.1443 O.2       1 <0>        -0.4416
     12 C8          5.2765   -3.5315    0.2282 C.3       1 <0>         0.1508
     13 H2          4.9981   -4.2114    1.0334 H         1 <0>         0.1202
     14 C9          5.7924   -4.3384   -0.9650 C.3       1 <0>        -0.1578
     15 O2          6.3022   -2.6474    0.6846 O.3       1 <0>        -0.3302
     16 C10         7.1410   -3.1187    1.6274 C.2       1 <0>         0.5110
     17 O3          7.0056   -4.2492    2.0505 O.2       1 <0>        -0.4812
     18 C11         8.2257   -2.2607    2.1467 C.ar      1 <0>        -0.0591
     19 C12         8.3807   -0.9587    1.6666 C.ar      1 <0>        -0.0811
     20 C13         9.3957   -0.1629    2.1558 C.ar      1 <0>        -0.0239
     21 C14        10.2591   -0.6522    3.1200 C.ar      1 <0>        -0.6305
     22 C15        10.1114   -1.9415    3.5999 C.ar      1 <0>        -0.0216
     23 C16         9.0969   -2.7460    3.1239 C.ar      1 <0>        -0.0727
     24 S1         11.5528    0.3713    3.7394 S.o2      1 <0>         2.4749
     25 O4         12.5547   -0.5362    4.1774 O.2       1 <0>        -0.8822
     26 O5         11.8188    1.2934    2.6915 O.2       1 <0>        -0.8826
     27 C17        10.8258    1.2330    5.1604 C.3       1 <0>        -0.2082
     28 F1          9.7271    1.9878    4.7359 F         1 <0>        -0.1629
     29 F2         10.4080    0.2950    6.1107 F         1 <0>        -0.1625
     30 S2          0.9974   -0.6568    1.4036 S.3       1 <0>         0.0191
     31 C18         0.3152   -0.2390   -2.5979 C.3       1 <0>        -0.1379
     32 H3          1.0039    1.9031    0.0027 H         1 <0>         0.0755
     33 H4         -0.5459    1.8868   -0.8726 H         1 <0>         0.0903
     34 H5         -0.5289    1.8773    0.9072 H         1 <0>         0.0880
     35 H6          6.0709   -3.6586   -1.7702 H         1 <0>         0.0848
     36 H7          6.6639   -4.9187   -0.6617 H         1 <0>         0.0718
     37 H8          5.0100   -5.0129   -1.3131 H         1 <0>         0.0828
     38 H9          7.7077   -0.5757    0.9137 H         1 <0>         0.1526
     39 H10         9.5170    0.8442    1.7851 H         1 <0>         0.1561
     40 H11        10.7892   -2.3174    4.3520 H         1 <0>         0.1583
     41 H12         8.9798   -3.7506    3.5027 H         1 <0>         0.1553
     42 H13        11.5704    1.8934    5.6048 H         1 <0>         0.1598
     43 H14         0.7766    0.6853   -2.9456 H         1 <0>         0.1059
     44 H15         0.6099   -1.0604   -3.2510 H         1 <0>         0.1065
     45 H16        -0.7695   -0.1324   -2.6150 H         1 <0>         0.0893
@<TRIPOS>BOND
     1    1    2 1
     2    1   32 1
     3    1   33 1
     4    1   34 1
     5    2    3 1
     6    2   30 1
     7    2    4 1
     8    4    5 2
     9    4   31 1
    10    5   10 1
    11    5    6 1
    12    6    7 2
    13    6   30 1
    14    7    8 1
    15    8    9 2
    16    8   12 1
    17    9   10 1
    18   10   11 2
    19   12   13 1
    20   12   14 1
    21   12   15 1
    22   14   35 1
    23   14   36 1
    24   14   37 1
    25   15   16 1
    26   16   17 2
    27   16   18 1
    28   18   23 ar
    29   18   19 ar
    30   19   20 ar
    31   19   38 1
    32   20   21 ar
    33   20   39 1
    34   21   22 ar
    35   21   24 1
    36   22   23 ar
    37   22   40 1
    38   23   41 1
    39   24   25 2
    40   24   26 2
    41   24   27 1
    42   27   28 1
    43   27   29 1
    44   27   42 1
    45   31   43 1
    46   31   44 1
    47   31   45 1
@<TRIPOS>MOLECULE
ZINC35528420
   56    60     0     0     0
SMALL
USER_CHARGES

@<TRIPOS>ATOM
      1 C1         -0.0178    1.4608    0.0101 C.3       1 <0>         0.0844
      2 N1          0.0021   -0.0041    0.0020 N.am      1 <0>        -0.5015
      3 C2          0.0057   -0.6753   -1.1711 C.2       1 <0>         0.6033
      4 O1         -0.0071   -0.0664   -2.2262 O.2       1 <0>        -0.4997
      5 C3          0.0247   -2.0762   -1.1654 C.2       1 <0>        -0.3192
      6 C4          0.0401   -2.8071    0.0240 C.2       1 <0>         0.1660
      7 C5          0.0579   -4.1864   -0.1671 C.2       1 <0>        -0.1930
      8 C6          0.0588   -4.6890   -1.4206 C.2       1 <0>        -0.1977
      9 S1          0.0358   -3.3336   -2.4141 S.3       1 <0>         0.3754
     10 N2          0.0357   -2.0648    1.2134 N.pl3     1 <0>        -0.4198
     11 C7          0.0229   -0.7035    1.1941 C.2       1 <0>         0.4156
     12 N3          0.0289   -0.3058    2.4476 N.2       1 <0>        -0.2874
     13 N4          0.0500   -1.3271    3.2287 N.2       1 <0>        -0.2427
     14 C8          0.0464   -2.4282    2.5274 C.2       1 <0>         0.1852
     15 C9          0.0679   -3.8348    3.0679 C.3       1 <0>        -0.0174
     16 C10         1.5176   -4.2912    3.2444 C.3       1 <0>        -0.1393
     17 C11         1.5391   -5.6978    3.7849 C.2       1 <0>         0.5199
     18 O2          0.4975   -6.2781    4.0070 O.2       1 <0>        -0.5364
     19 N5          2.7157   -6.3109    4.0214 N.am      1 <0>        -0.6100
     20 C12         3.9857   -5.6188    3.7631 C.3       1 <0>         0.1047
     21 C13         4.8410   -5.6674    5.0331 C.3       1 <0>        -0.1322
     22 C14         4.9980   -7.1219    5.4823 C.3       1 <0>        -0.0804
     23 C15         3.6220   -7.7096    5.8038 C.3       1 <0>        -0.1324
     24 C16         2.7529   -7.6820    4.5483 C.3       1 <0>         0.1112
     25 C17         5.8804   -7.1774    6.7309 C.3       1 <0>        -0.0772
     26 C18         6.1361   -8.6155    7.1018 C.ar      1 <0>        -0.0803
     27 C19         5.2727   -9.2723    7.9585 C.ar      1 <0>        -0.1173
     28 C20         5.5072  -10.5915    8.2987 C.ar      1 <0>        -0.1180
     29 C21         6.6050  -11.2539    7.7819 C.ar      1 <0>        -0.1246
     30 C22         7.4679  -10.5973    6.9245 C.ar      1 <0>        -0.1178
     31 C23         7.2310   -9.2794    6.5809 C.ar      1 <0>        -0.1185
     32 H1          1.0048    1.8381    0.0023 H         1 <0>         0.0788
     33 H2         -0.5450    1.8219   -0.8730 H         1 <0>         0.0987
     34 H3         -0.5280    1.8123    0.9069 H         1 <0>         0.0959
     35 H4          0.0712   -4.8515    0.6837 H         1 <0>         0.1528
     36 H5          0.0714   -5.7273   -1.7175 H         1 <0>         0.2106
     37 H6         -0.4413   -3.8617    4.0312 H         1 <0>         0.1182
     38 H7         -0.4400   -4.5001    2.3697 H         1 <0>         0.0951
     39 H8          2.0268   -4.2643    2.2811 H         1 <0>         0.0934
     40 H9          2.0255   -3.6259    3.9426 H         1 <0>         0.1075
     41 H10         4.5131   -6.1148    2.9482 H         1 <0>         0.0725
     42 H11         3.7883   -4.5809    3.4950 H         1 <0>         0.0859
     43 H12         5.8233   -5.2423    4.8267 H         1 <0>         0.0792
     44 H13         4.3542   -5.0936    5.8217 H         1 <0>         0.0714
     45 H14         5.4624   -7.7005    4.6837 H         1 <0>         0.0748
     46 H15         3.7366   -8.7381    6.1460 H         1 <0>         0.0817
     47 H16         3.1467   -7.1166    6.5852 H         1 <0>         0.0679
     48 H17         1.7422   -8.0049    4.7981 H         1 <0>         0.0942
     49 H18         3.1774   -8.3500    3.7989 H         1 <0>         0.0670
     50 H19         6.8290   -6.6803    6.5279 H         1 <0>         0.0744
     51 H20         5.3755   -6.6738    7.5553 H         1 <0>         0.0734
     52 H21         4.4150   -8.7548    8.3623 H         1 <0>         0.1208
     53 H22         4.8330  -11.1045    8.9686 H         1 <0>         0.1214
     54 H23         6.7886  -12.2843    8.0483 H         1 <0>         0.1206
     55 H24         8.3257  -11.1147    6.5210 H         1 <0>         0.1210
     56 H25         7.9031   -8.7676    5.9081 H         1 <0>         0.1199
@<TRIPOS>BOND
     1    1    2 1
     2    1   32 1
     3    1   33 1
     4    1   34 1
     5    2   11 1
     6    2    3 am
     7    3    4 2
     8    3    5 1
     9    5    9 1
    10    5    6 2
    11    6    7 1
    12    6   10 1
    13    7    8 2
    14    7   35 1
    15    8    9 1
    16    8   36 1
    17   10   14 1
    18   10   11 1
    19   11   12 2
    20   12   13 1
    21   13   14 2
    22   14   15 1
    23   15   16 1
    24   15   37 1
    25   15   38 1
    26   16   17 1
    27   16   39 1
    28   16   40 1
    29   17   18 2
    30   17   19 am
    31   19   24 1
    32   19   20 1
    33   20   21 1
    34   20   41 1
    35   20   42 1
    36   21   22 1
    37   21   43 1
    38   21   44 1
    39   22   23 1
    40   22   25 1
    41   22   45 1
    42   23   24 1
    43   23   46 1
    44   23   47 1
    45   24   48 1
    46   24   49 1
    47   25   26 1
    48   25   50 1
    49   25   51 1
    50   26   31 ar
    51   26   27 ar
    52   27   28 ar
    53   27   52 1
    54   28   29 ar
    55   28   53 1
    56   29   30 ar
    57   29   54 1
    58   30   31 ar
    59   30   55 1
    60   31   56 1
@<TRIPOS>MOLECULE
ZINC01675942
   14    14     0     0     0
SMALL
USER_CHARGES
1-bromo-2-iodo-4-nitro-benzene
@<TRIPOS>ATOM
      1 C1          1.2086   -0.6789   -0.0131 C.ar      1 <0>        -0.0312
      2 C2          0.0021   -0.0041    0.0020 C.ar      1 <0>        -0.0847
      3 C3         -0.0167    1.3787    0.0096 C.ar      1 <0>        -0.0246
      4 C4          1.1727    2.0864    0.0021 C.ar      1 <0>        -0.0957
      5 C5          2.3787    1.4105   -0.0135 C.ar      1 <0>        -0.0171
      6 C6          2.3963    0.0281   -0.0207 C.ar      1 <0>        -0.0294
      7 N1          3.6875   -0.6951   -0.0369 N.pl3     1 <0>         0.0236
      8 O1          3.7034   -1.9130   -0.0436 O.2       1 <0>        -0.1426
      9 O2          4.7343   -0.0724   -0.0435 O.3       1 <0>        -0.1451
     10 I1          1.1457    4.1812    0.0129 I         1 <0>         0.0292
     11 Br1        -1.6668    2.3022    0.0224 Br        1 <0>         0.0104
     12 H1          1.2231   -1.7587   -0.0194 H         1 <0>         0.1711
     13 H2         -0.9258   -0.5568    0.0075 H         1 <0>         0.1676
     14 H3          3.3070    1.9624   -0.0202 H         1 <0>         0.1686
@<TRIPOS>BOND
     1    1    6 ar
     2    1    2 ar
     3    1   12 1
     4    2    3 ar
     5    2   13 1
     6    3    4 ar
     7    3   11 1
     8    4    5 ar
     9    4   10 1
    10    5    6 ar
    11    5   14 1
    12    6    7 1
    13    7    8 2
    14    7    9 1
@<TRIPOS>MOLECULE
ZINC19966881
   26    28     0     0     0
SMALL
USER_CHARGES
1-[(5-bromo-2-thienyl)methyl]indoline-2,3-dione
@<TRIPOS>ATOM
      1 C1         -0.0126    1.0758    0.0080 C.ar      1 <0>        -0.1530
      2 C2         -1.2218    1.7512    0.0174 C.ar      1 <0>        -0.0403
      3 C3         -1.2580    3.1329    0.0312 C.ar      1 <0>        -0.1483
      4 C4         -0.0766    3.8630    0.0235 C.ar      1 <0>         0.1913
      5 C5          1.1481    3.1758    0.0082 C.ar      1 <0>        -0.2367
      6 C6          1.1735    1.7813    0.0004 C.ar      1 <0>        -0.0041
      7 C7          2.2071    4.2020    0.0027 C.2       1 <0>         0.3911
      8 O1          3.4078    4.0267   -0.0099 O.2       1 <0>        -0.3666
      9 C8          1.4735    5.5103    0.0163 C.2       1 <0>         0.4939
     10 O2          1.9761    6.6143    0.0168 O.2       1 <0>        -0.4407
     11 N1          0.1576    5.2361    0.0279 N.am      1 <0>        -0.5436
     12 C9         -0.8970    6.2529    0.0440 C.3       1 <0>         0.1945
     13 C10        -1.2438    6.5945    1.4702 C.2       1 <0>        -0.1747
     14 C11        -0.7056    7.5422    2.2757 C.2       1 <0>        -0.1260
     15 C12        -1.1890    7.6812    3.5635 C.2       1 <0>        -0.1138
     16 C13        -2.1805    6.8575    3.9857 C.2       1 <0>        -0.1676
     17 S1         -2.4646    5.8504    2.5393 S.3       1 <0>         0.1142
     18 Br1        -3.0395    6.7934    5.6691 Br        1 <0>         0.0454
     19 H1          0.0021   -0.0041    0.0020 H         1 <0>         0.1401
     20 H2         -2.1459    1.1924    0.0187 H         1 <0>         0.1410
     21 H3         -2.2081    3.6464    0.0434 H         1 <0>         0.1332
     22 H4          2.1170    1.2560   -0.0118 H         1 <0>         0.1402
     23 H5         -0.5430    7.1565   -0.4738 H         1 <0>         0.1250
     24 H6         -1.7897    5.8634   -0.4672 H         1 <0>         0.1136
     25 H7          0.0870    8.1815    1.9159 H         1 <0>         0.1460
     26 H8         -0.7804    8.4311    4.2247 H         1 <0>         0.1457
@<TRIPOS>BOND
     1    1    6 ar
     2    1    2 ar
     3    1   19 1
     4    2    3 ar
     5    2   20 1
     6    3    4 ar
     7    3   21 1
     8    4   11 1
     9    4    5 ar
    10    5    6 ar
    11    5    7 1
    12    6   22 1
    13    7    8 2
    14    7    9 1
    15    9   10 2
    16    9   11 am
    17   11   12 1
    18   12   13 1
    19   12   23 1
    20   12   24 1
    21   13   17 1
    22   13   14 2
    23   14   15 1
    24   14   25 1
    25   15   16 2
    26   15   26 1
    27   16   17 1
    28   16   18 1
@<TRIPOS>MOLECULE
ZINC37828447
   40    42     0     0     0
SMALL
USER_CHARGES

@<TRIPOS>ATOM
      1 C1          2.6161    2.2886    1.4761 C.3       1 <0>        -0.0856
      2 C2          2.4962    0.8478    1.0509 C.2       1 <0>         0.0257
      3 C3          3.0044    0.3118   -0.0787 C.2       1 <0>        -0.1988
      4 C4          2.6623   -1.0566   -0.0891 C.2       1 <0>        -0.1738
      5 C5          1.9607   -1.3007    1.0286 C.2       1 <0>        -0.0034
      6 N1          1.8621   -0.1377    1.7429 N.pl3     1 <0>        -0.4389
      7 C6          1.1822   -0.0091    3.0366 C.3       1 <0>         0.0901
      8 C7          0.2343   -1.1974    3.2292 C.3       1 <0>         0.1008
      9 N2          0.9356   -2.4407    2.8758 N.am      1 <0>        -0.6102
     10 C8          1.3633   -2.6158    1.4735 C.3       1 <0>         0.2052
     11 H1          2.1150   -3.4032    1.4190 H         1 <0>         0.1044
     12 C9          0.1671   -2.9719    0.5886 C.3       1 <0>        -0.1609
     13 C10         1.1736   -3.3904    3.8021 C.2       1 <0>         0.5284
     14 O1          0.8854   -3.1908    4.9631 O.2       1 <0>        -0.5065
     15 C11         1.7979   -4.7002    3.3951 C.3       1 <0>         0.0143
     16 H2          1.7315   -4.8137    2.3131 H         1 <0>         0.1245
     17 C12         3.2453   -4.7185    3.8143 C.ar      1 <0>        -0.1078
     18 C13         3.5766   -4.6995    5.1562 C.ar      1 <0>        -0.0832
     19 C14         4.9043   -4.7163    5.5407 C.ar      1 <0>        -0.1200
     20 C15         5.9007   -4.7526    4.5832 C.ar      1 <0>        -0.1037
     21 C16         5.5694   -4.7726    3.2413 C.ar      1 <0>        -0.1194
     22 C17         4.2416   -4.7601    2.8569 C.ar      1 <0>        -0.0968
     23 Cl1         0.9229   -6.0577    4.1966 Cl        1 <0>        -0.1176
     24 H3          3.5205    2.4180    2.0706 H         1 <0>         0.0709
     25 H4          2.6678    2.9250    0.5927 H         1 <0>         0.0815
     26 H5          1.7466    2.5649    2.0725 H         1 <0>         0.0615
     27 H6          3.5696    0.8348   -0.8359 H         1 <0>         0.1378
     28 H7          2.9173   -1.7745   -0.8546 H         1 <0>         0.1383
     29 H8          1.9219    0.0000    3.8372 H         1 <0>         0.0846
     30 H9          0.6112    0.9191    3.0570 H         1 <0>         0.0996
     31 H10        -0.0850   -1.2430    4.2703 H         1 <0>         0.1160
     32 H11        -0.6371   -1.0757    2.5858 H         1 <0>         0.0861
     33 H12         0.4946   -3.0586   -0.4474 H         1 <0>         0.0821
     34 H13        -0.2574   -3.9209    0.9161 H         1 <0>         0.0678
     35 H14        -0.5882   -2.1898    0.6666 H         1 <0>         0.0650
     36 H15         2.7981   -4.6711    5.9042 H         1 <0>         0.1326
     37 H16         5.1631   -4.7006    6.5891 H         1 <0>         0.1278
     38 H17         6.9380   -4.7650    4.8836 H         1 <0>         0.1268
     39 H18         6.3479   -4.8006    2.4933 H         1 <0>         0.1290
     40 H19         3.9827   -4.7795    1.8086 H         1 <0>         0.1256
@<TRIPOS>BOND
     1    1    2 1
     2    1   24 1
     3    1   25 1
     4    1   26 1
     5    2    6 1
     6    2    3 2
     7    3    4 1
     8    3   27 1
     9    4    5 2
    10    4   28 1
    11    5   10 1
    12    5    6 1
    13    6    7 1
    14    7    8 1
    15    7   29 1
    16    7   30 1
    17    8    9 1
    18    8   31 1
    19    8   32 1
    20    9   10 1
    21    9   13 am
    22   10   11 1
    23   10   12 1
    24   12   33 1
    25   12   34 1
    26   12   35 1
    27   13   14 2
    28   13   15 1
    29   15   16 1
    30   15   17 1
    31   15   23 1
    32   17   22 ar
    33   17   18 ar
    34   18   19 ar
    35   18   36 1
    36   19   20 ar
    37   19   37 1
    38   20   21 ar
    39   20   38 1
    40   21   22 ar
    41   21   39 1
    42   22   40 1
@<TRIPOS>MOLECULE
ZINC40656442
   43    44     0     0     0
SMALL
USER_CHARGES

@<TRIPOS>ATOM
      1 C1          1.0541    1.4701   -0.4788 C.3       1 <0>        -0.1457
      2 C2          0.6587    0.0040   -0.2916 C.3       1 <0>         0.0726
      3 H1         -0.3916   -0.0563   -0.0067 H         1 <0>         0.0633
      4 C3          0.8777   -0.7570   -1.6042 C.3       1 <0>         0.0616
      5 N1          0.6712   -2.1914   -1.3491 N.am      1 <0>        -0.6013
      6 C4          1.3843   -2.8021   -0.2160 C.3       1 <0>         0.1344
      7 C5          1.1407   -1.9415    1.0290 C.3       1 <0>         0.0585
      8 O1          1.4658   -0.5812    0.7331 O.3       1 <0>        -0.3715
      9 C6          0.8545   -4.2172    0.0240 C.3       1 <0>        -0.1326
     10 C7          2.8830   -2.8568   -0.5194 C.3       1 <0>        -0.1520
     11 C8         -0.1465   -2.9244   -2.1304 C.2       1 <0>         0.5598
     12 O2         -0.3083   -4.1085   -1.9000 O.2       1 <0>        -0.5238
     13 C9         -0.8399   -2.2966   -3.2559 C.2       1 <0>        -0.1561
     14 C10        -0.7994   -2.8686   -4.4769 C.2       1 <0>        -0.0501
     15 C11        -1.3236   -2.1455   -5.6455 C.ar      1 <0>        -0.0971
     16 C12        -0.9473   -0.8184   -5.8785 C.ar      1 <0>        -0.0777
     17 C13        -1.4423   -0.1476   -6.9758 C.ar      1 <0>        -0.1293
     18 C14        -2.3105   -0.7825   -7.8482 C.ar      1 <0>        -0.0834
     19 C15        -2.6893   -2.0937   -7.6272 C.ar      1 <0>        -0.1530
     20 C16        -2.1979   -2.7835   -6.5347 C.ar      1 <0>         0.1147
     21 F1         -2.5636   -4.0666   -6.3225 F         1 <0>        -0.1314
     22 C17        -1.5991   -1.0111   -3.0508 C.3       1 <0>        -0.1212
     23 H2          2.1045    1.5296   -0.7637 H         1 <0>         0.0675
     24 H3          0.4396    1.9151   -1.2614 H         1 <0>         0.0749
     25 H4          0.8999    2.0101    0.4554 H         1 <0>         0.0701
     26 H5          0.1647   -0.4109   -2.3526 H         1 <0>         0.1083
     27 H6          1.8943   -0.5900   -1.9602 H         1 <0>         0.0791
     28 H7          0.0922   -2.0096    1.3192 H         1 <0>         0.0566
     29 H8          1.7691   -2.2966    1.8457 H         1 <0>         0.1083
     30 H9          1.1610   -4.8642   -0.7979 H         1 <0>         0.0784
     31 H10         1.2588   -4.6026    0.9600 H         1 <0>         0.0500
     32 H11        -0.2337   -4.1929    0.0810 H         1 <0>         0.0697
     33 H12         3.2582   -1.8461   -0.6803 H         1 <0>         0.0639
     34 H13         3.4077   -3.3095    0.3219 H         1 <0>         0.0707
     35 H14         3.0506   -3.4536   -1.4159 H         1 <0>         0.0589
     36 H15        -0.3821   -3.8575   -4.5964 H         1 <0>         0.1346
     37 H16        -0.2707   -0.3205   -5.1997 H         1 <0>         0.1353
     38 H17        -1.1524    0.8771   -7.1559 H         1 <0>         0.1339
     39 H18        -2.6942   -0.2501   -8.7060 H         1 <0>         0.1355
     40 H19        -3.3674   -2.5814   -8.3119 H         1 <0>         0.1391
     41 H20        -1.1197   -0.2119   -3.6160 H         1 <0>         0.0808
     42 H21        -2.6251   -1.1359   -3.3968 H         1 <0>         0.0778
     43 H22        -1.6015   -0.7557   -1.9911 H         1 <0>         0.0678
@<TRIPOS>BOND
     1    1    2 1
     2    1   23 1
     3    1   24 1
     4    1   25 1
     5    2    3 1
     6    2    8 1
     7    2    4 1
     8    4    5 1
     9    4   26 1
    10    4   27 1
    11    5    6 1
    12    5   11 am
    13    6    7 1
    14    6    9 1
    15    6   10 1
    16    7    8 1
    17    7   28 1
    18    7   29 1
    19    9   30 1
    20    9   31 1
    21    9   32 1
    22   10   33 1
    23   10   34 1
    24   10   35 1
    25   11   12 2
    26   11   13 1
    27   13   14 2
    28   13   22 1
    29   14   15 1
    30   14   36 1
    31   15   20 ar
    32   15   16 ar
    33   16   17 ar
    34   16   37 1
    35   17   18 ar
    36   17   38 1
    37   18   19 ar
    38   18   39 1
    39   19   20 ar
    40   19   40 1
    41   20   21 1
    42   22   41 1
    43   22   42 1
    44   22   43 1
@<TRIPOS>MOLECULE
ZINC17023914
   30    32     0     0     0
SMALL
USER_CHARGES

@<TRIPOS>ATOM
      1 C1         -0.0167    1.3781    0.0096 C.ar      1 <0>        -0.0913
      2 C2          1.1691    2.0873    0.0021 C.ar      1 <0>        -0.0843
      3 C3          2.3811    1.4113   -0.0131 C.ar      1 <0>         0.1292
      4 C4          2.3986    0.0222   -0.0208 C.ar      1 <0>        -0.0191
      5 C5          1.2084   -0.6824   -0.0132 C.ar      1 <0>        -0.0262
      6 C6          0.0021   -0.0041    0.0020 C.ar      1 <0>        -0.0842
      7 Cl1         1.2277   -2.4183   -0.0227 Cl        1 <0>        -0.0341
      8 Cl2         3.9120   -0.8280   -0.0404 Cl        1 <0>        -0.0328
      9 N1          3.5858    2.1291   -0.0212 N.am      1 <0>        -0.5507
     10 C7          4.2116    2.5211   -1.1614 C.2       1 <0>         0.5457
     11 O1          3.7535    2.5095   -2.2838 O.2       1 <0>        -0.4506
     12 C8          5.5818    2.9709   -0.7539 C.3       1 <0>        -0.1279
     13 H1          6.2648    2.1222   -0.7193 H         1 <0>         0.1304
     14 C9          6.2123    4.1229   -1.5077 C.3       1 <0>        -0.0686
     15 C10         7.3970    4.5893   -0.6878 C.2       1 <0>        -0.1540
     16 C11         7.5712    4.3158    0.5699 C.2       1 <0>        -0.1525
     17 C12         6.6032    3.5113    1.4118 C.3       1 <0>        -0.0699
     18 C13         5.2823    3.4896    0.6866 C.3       1 <0>        -0.1280
     19 H2          4.8714    4.4986    0.6511 H         1 <0>         0.1305
     20 C14         4.2367    2.5047    1.1104 C.2       1 <0>         0.5458
     21 O2          4.0168    2.1187    2.2384 O.2       1 <0>        -0.4483
     22 H3         -0.9596    1.9045    0.0260 H         1 <0>         0.1513
     23 H4          1.1528    3.1671    0.0077 H         1 <0>         0.1438
     24 H5         -0.9264   -0.5557    0.0083 H         1 <0>         0.1522
     25 H6          6.5479    3.7866   -2.4887 H         1 <0>         0.0932
     26 H7          5.4928    4.9343   -1.6172 H         1 <0>         0.0879
     27 H8          8.1471    5.1891   -1.1818 H         1 <0>         0.1162
     28 H9          8.4664    4.6866    1.0470 H         1 <0>         0.1165
     29 H10         6.9677    2.4902    1.5246 H         1 <0>         0.0864
     30 H11         6.4861    3.9761    2.3907 H         1 <0>         0.0934
@<TRIPOS>BOND
     1    1    6 ar
     2    1    2 ar
     3    1   22 1
     4    2    3 ar
     5    2   23 1
     6    3    4 ar
     7    3    9 1
     8    4    5 ar
     9    4    8 1
    10    5    6 ar
    11    5    7 1
    12    6   24 1
    13    9   20 am
    14    9   10 am
    15   10   11 2
    16   10   12 1
    17   12   13 1
    18   12   18 1
    19   12   14 1
    20   14   15 1
    21   14   25 1
    22   14   26 1
    23   15   16 2
    24   15   27 1
    25   16   17 1
    26   16   28 1
    27   17   18 1
    28   17   29 1
    29   17   30 1
    30   18   19 1
    31   18   20 1
    32   20   21 2
@<TRIPOS>MOLECULE
ZINC03957913
   41    44     0     0     0
SMALL
USER_CHARGES
hydroxy-phenyl-BLAHone
@<TRIPOS>ATOM
      1 C1         -2.7276    9.5506   -1.6754 C.ar      1 <0>        -0.1051
      2 C2         -1.5193    9.1852   -1.1108 C.ar      1 <0>        -0.1085
      3 C3         -1.1775    7.8508   -1.0111 C.ar      1 <0>        -0.1001
      4 C4         -2.0487    6.8756   -1.4784 C.ar      1 <0>         0.1085
      5 C5         -3.2591    7.2460   -2.0496 C.ar      1 <0>        -0.1009
      6 C6         -3.5973    8.5819   -2.1417 C.ar      1 <0>        -0.1084
      7 N1         -1.7049    5.5216   -1.3791 N.am      1 <0>        -0.4678
      8 C7         -1.0597    4.9193   -2.4263 C.2       1 <0>         0.1928
      9 C8         -0.7108    3.6237   -2.3495 C.2       1 <0>        -0.1845
     10 C9         -1.0301    2.8772   -1.1856 C.2       1 <0>         0.2266
     11 C10        -1.6794    3.4943   -0.1425 C.2       1 <0>        -0.3047
     12 C11        -2.0167    4.8492   -0.2611 C.2       1 <0>         0.5429
     13 O1         -2.5944    5.4173    0.6527 O.2       1 <0>        -0.5343
     14 C12        -2.0301    2.7528    1.1207 C.3       1 <0>        -0.0410
     15 C13        -1.9668    1.2440    0.8679 C.3       1 <0>         0.0723
     16 H1         -2.8123    0.9425    0.2496 H         1 <0>         0.0724
     17 C14        -0.6545    0.9323    0.1371 C.3       1 <0>         0.0274
     18 O2         -0.6813    1.5709   -1.1409 O.3       1 <0>        -0.2940
     19 O3         -2.0041    0.5415    2.1117 O.3       1 <0>        -0.5514
     20 C15         0.0239    2.9038   -3.4497 C.3       1 <0>        -0.0541
     21 C16        -0.0928    3.6678   -4.7669 C.3       1 <0>        -0.1242
     22 C17         0.2998    5.1279   -4.5103 C.3       1 <0>        -0.1163
     23 C18        -0.7802    5.7679   -3.6408 C.3       1 <0>        -0.0886
     24 H2         -2.9927   10.5948   -1.7519 H         1 <0>         0.1307
     25 H3         -0.8420    9.9441   -0.7479 H         1 <0>         0.1326
     26 H4         -0.2338    7.5660   -0.5698 H         1 <0>         0.1261
     27 H5         -3.9369    6.4901   -2.4176 H         1 <0>         0.1262
     28 H6         -4.5401    8.8705   -2.5824 H         1 <0>         0.1325
     29 H7         -1.3206    3.0161    1.9052 H         1 <0>         0.0834
     30 H8         -3.0371    3.0273    1.4352 H         1 <0>         0.0918
     31 H9         -0.5551   -0.1452    0.0062 H         1 <0>         0.1155
     32 H10         0.1870    1.3100    0.7178 H         1 <0>         0.0793
     33 H11        -1.9512   -0.4199    2.0222 H         1 <0>         0.3837
     34 H12         1.0759    2.8132   -3.1793 H         1 <0>         0.0761
     35 H13        -0.4014    1.9079   -3.5734 H         1 <0>         0.0812
     36 H14         0.5785    3.2309   -5.5062 H         1 <0>         0.0760
     37 H15        -1.1197    3.6207   -5.1295 H         1 <0>         0.0687
     38 H16         1.2586    5.1652   -3.9931 H         1 <0>         0.0724
     39 H17         0.3728    5.6610   -5.4583 H         1 <0>         0.0794
     40 H18        -1.6954    5.8734   -4.2234 H         1 <0>         0.0951
     41 H19        -0.4441    6.7540   -3.3200 H         1 <0>         0.0902
@<TRIPOS>BOND
     1    1    6 ar
     2    1    2 ar
     3    1   24 1
     4    2    3 ar
     5    2   25 1
     6    3    4 ar
     7    3   26 1
     8    4    5 ar
     9    4    7 1
    10    5    6 ar
    11    5   27 1
    12    6   28 1
    13    7   12 am
    14    7    8 1
    15    8   23 1
    16    8    9 2
    17    9   10 1
    18    9   20 1
    19   10   18 1
    20   10   11 2
    21   11   12 1
    22   11   14 1
    23   12   13 2
    24   14   15 1
    25   14   29 1
    26   14   30 1
    27   15   16 1
    28   15   17 1
    29   15   19 1
    30   17   18 1
    31   17   31 1
    32   17   32 1
    33   19   33 1
    34   20   21 1
    35   20   34 1
    36   20   35 1
    37   21   22 1
    38   21   36 1
    39   21   37 1
    40   22   23 1
    41   22   38 1
    42   22   39 1
    43   23   40 1
    44   23   41 1
@<TRIPOS>MOLECULE
ZINC12856578
   36    39     0     0     0
SMALL
USER_CHARGES
(10aR)-3-[(2-fluorophenyl)amino]-10,10a-dihydro-5H-imidazo[1,5-b]isoquinolin-1-one
@<TRIPOS>ATOM
      1 C1          7.0789    8.6116    2.0107 C.ar      1 <0>        -0.1101
      2 C2          7.6804    7.4400    1.5895 C.ar      1 <0>        -0.1156
      3 C3          6.9375    6.5015    0.9036 C.ar      1 <0>        -0.1092
      4 C4          5.5945    6.7253    0.6332 C.ar      1 <0>        -0.1048
      5 C5          4.9888    7.8844    1.0611 C.ar      1 <0>        -0.0675
      6 C6          5.7437    8.8304    1.7489 C.ar      1 <0>        -0.1149
      7 C7          3.5343    8.2060    0.8346 C.3       1 <0>        -0.0708
      8 C8          2.9751    7.4189   -0.3498 C.3       1 <0>         0.0450
      9 H1          3.2660    7.8550   -1.3054 H         1 <0>         0.1331
     10 C9          1.4722    7.2794   -0.2180 C.2       1 <0>         0.5152
     11 O1          0.6521    8.1765   -0.2284 O.2       1 <0>        -0.4721
     12 N1          1.2305    5.9767   -0.0882 N.2       1 <0>        -0.6499
     13 C10         2.3344    5.2537   -0.0945 C.2       1 <0>         0.6777
     14 N2          3.4396    6.0194   -0.2006 N.pl3     1 <0>        -0.6131
     15 C11         4.8560    5.6655   -0.1537 C.3       1 <0>         0.1740
     16 N3          2.3556    3.8935    0.0009 N.pl3     1 <0>        -0.6226
     17 C12         1.1700    3.1905    0.2461 C.ar      1 <0>         0.1217
     18 C13         0.0106    3.8768    0.5805 C.ar      1 <0>        -0.1213
     19 C14        -1.1577    3.1804    0.8223 C.ar      1 <0>        -0.1030
     20 C15        -1.1758    1.8010    0.7261 C.ar      1 <0>        -0.1084
     21 C16        -0.0223    1.1124    0.3989 C.ar      1 <0>        -0.1321
     22 C17         1.1510    1.8029    0.1555 C.ar      1 <0>         0.0633
     23 F1          2.2767    1.1307   -0.1701 F         1 <0>        -0.1410
     24 H2          7.6543    9.3537    2.5442 H         1 <0>         0.1273
     25 H3          8.7253    7.2609    1.7959 H         1 <0>         0.1283
     26 H4          7.4047    5.5851    0.5742 H         1 <0>         0.1270
     27 H5          5.2777    9.7464    2.0808 H         1 <0>         0.1270
     28 H6          3.4305    9.2727    0.6362 H         1 <0>         0.1025
     29 H7          2.9690    7.9525    1.7314 H         1 <0>         0.0871
     30 H8          5.2496    5.6215   -1.1692 H         1 <0>         0.0949
     31 H9          4.9793    4.6965    0.3300 H         1 <0>         0.0973
     32 H10         3.1921    3.4131   -0.1010 H         1 <0>         0.4252
     33 H11         0.0219    4.9544    0.6513 H         1 <0>         0.1986
     34 H12        -2.0597    3.7145    1.0825 H         1 <0>         0.1359
     35 H13        -2.0920    1.2600    0.9115 H         1 <0>         0.1347
     36 H14        -0.0387    0.0348    0.3290 H         1 <0>         0.1404
@<TRIPOS>BOND
     1    1    6 ar
     2    1    2 ar
     3    1   24 1
     4    2    3 ar
     5    2   25 1
     6    3    4 ar
     7    3   26 1
     8    4   15 1
     9    4    5 ar
    10    5    6 ar
    11    5    7 1
    12    6   27 1
    13    7    8 1
    14    7   28 1
    15    7   29 1
    16    8    9 1
    17    8   14 1
    18    8   10 1
    19   10   11 2
    20   10   12 1
    21   12   13 2
    22   13   14 1
    23   13   16 1
    24   14   15 1
    25   15   30 1
    26   15   31 1
    27   16   17 1
    28   16   32 1
    29   17   22 ar
    30   17   18 ar
    31   18   19 ar
    32   18   33 1
    33   19   20 ar
    34   19   34 1
    35   20   21 ar
    36   20   35 1
    37   21   22 ar
    38   21   36 1
    39   22   23 1
@<TRIPOS>MOLECULE
ZINC36152618
   31    33     0     0     0
SMALL
USER_CHARGES

@<TRIPOS>ATOM
      1 C1         -0.0184    1.5028    0.0103 C.3       1 <0>        -0.1213
      2 C2          0.0021   -0.0041    0.0020 C.ar      1 <0>        -0.0703
      3 C3          0.0057   -0.6887   -1.1989 C.ar      1 <0>        -0.1140
      4 C4          0.0245   -2.0709   -1.2065 C.ar      1 <0>        -0.0911
      5 C5          0.0400   -2.7685   -0.0132 C.ar      1 <0>        -0.0907
      6 C6          0.0373   -2.0839    1.1877 C.ar      1 <0>        -0.1007
      7 C7          0.0229   -0.7016    1.1953 C.ar      1 <0>        -0.1132
      8 C8          0.0595   -4.2753   -0.0215 C.3       1 <0>         0.1241
      9 H1         -0.2934   -4.6326   -0.9889 H         1 <0>         0.1242
     10 C9          1.4995   -4.7629    0.2023 C.3       1 <0>        -0.1593
     11 S1          1.5092   -6.5626   -0.1130 S.3       1 <0>         0.0546
     12 C10        -0.0078   -7.0364    0.6615 C.2       1 <0>         0.1576
     13 N1         -0.4591   -8.2249    0.9273 N.2       1 <0>        -0.2322
     14 N2         -1.6168   -8.1258    1.4872 N.2       1 <0>        -0.2087
     15 C11        -1.9537   -6.8701    1.6061 C.2       1 <0>         0.1160
     16 N3         -0.9338   -6.1238    1.0918 N.pl3     1 <0>        -0.2954
     17 N4         -0.8289   -4.7729    1.0275 N.3       1 <0>        -0.4475
     18 C12        -3.2333   -6.3421    2.2018 C.3       1 <0>         0.5770
     19 F1         -3.8683   -7.3608    2.9202 F         1 <0>        -0.1443
     20 F2         -2.9430   -5.2768    3.0609 F         1 <0>        -0.1628
     21 F3         -4.0764   -5.8986    1.1773 F         1 <0>        -0.1541
     22 H2          1.0042    1.8801    0.0026 H         1 <0>         0.0751
     23 H3         -0.5455    1.8639   -0.8728 H         1 <0>         0.0704
     24 H4         -0.5286    1.8543    0.9071 H         1 <0>         0.0699
     25 H5         -0.0064   -0.1436   -2.1312 H         1 <0>         0.1298
     26 H6          0.0266   -2.6057   -2.1448 H         1 <0>         0.1292
     27 H7          0.0491   -2.6289    2.1200 H         1 <0>         0.1176
     28 H8          0.0245   -0.1667    2.1335 H         1 <0>         0.1284
     29 H9          2.1742   -4.2603   -0.4906 H         1 <0>         0.1488
     30 H10         1.8041   -4.5638    1.2298 H         1 <0>         0.1086
     31 H11        -0.5805   -4.3856    1.9255 H         1 <0>         0.3741
@<TRIPOS>BOND
     1    1    2 1
     2    1   22 1
     3    1   23 1
     4    1   24 1
     5    2    7 ar
     6    2    3 ar
     7    3    4 ar
     8    3   25 1
     9    4    5 ar
    10    4   26 1
    11    5    6 ar
    12    5    8 1
    13    6    7 ar
    14    6   27 1
    15    7   28 1
    16    8    9 1
    17    8   17 1
    18    8   10 1
    19   10   11 1
    20   10   29 1
    21   10   30 1
    22   11   12 1
    23   12   16 1
    24   12   13 2
    25   13   14 1
    26   14   15 2
    27   15   16 1
    28   15   18 1
    29   16   17 1
    30   17   31 1
    31   18   19 1
    32   18   20 1
    33   18   21 1
@<TRIPOS>MOLECULE
ZINC48918921
   35    36     0     0     0
SMALL
USER_CHARGES

@<TRIPOS>ATOM
      1 C1         -0.3006    1.6879   -0.1918 C.3       1 <0>        -0.1556
      2 C2         -0.1993    0.1615   -0.1628 C.3       1 <0>        -0.1193
      3 C3         -1.6041   -0.4420   -0.1069 C.3       1 <0>        -0.0895
      4 C4         -2.2736   -0.0539    1.2134 C.3       1 <0>        -0.1311
      5 C5         -3.6923   -0.6308    1.2509 C.3       1 <0>         0.1031
      6 N1         -3.6203   -2.0789    1.0135 N.am      1 <0>        -0.5911
      7 C6         -2.9184   -2.5648   -0.1823 C.3       1 <0>         0.1111
      8 C7         -1.5084   -1.9663   -0.2037 C.3       1 <0>        -0.1300
      9 C8         -4.1871   -2.9452    1.8766 C.2       1 <0>         0.5882
     10 O1         -4.1995   -4.1350    1.6240 O.2       1 <0>        -0.5125
     11 C9         -4.7905   -2.4520    3.1237 C.2       1 <0>         0.0207
     12 C10        -6.0143   -1.8182    3.2616 C.2       1 <0>        -0.1745
     13 C11        -6.1383   -1.5468    4.6271 C.2       1 <0>         0.0722
     14 N2         -5.0633   -1.9934    5.2245 N.2       1 <0>        -0.2659
     15 N3         -4.2588   -2.5322    4.3806 N.pl3     1 <0>        -0.3591
     16 H1         -3.4032   -2.9325    4.6011 H         1 <0>         0.4537
     17 C12        -7.3034   -0.8614    5.2932 C.3       1 <0>        -0.0768
     18 Br1        -7.2536   -1.4074    1.8936 Br        1 <0>         0.0088
     19 H2          0.7002    2.1178   -0.2316 H         1 <0>         0.0544
     20 H3         -0.8645    1.9979   -1.0716 H         1 <0>         0.0549
     21 H4         -0.8099    2.0353    0.7072 H         1 <0>         0.0559
     22 H5          0.3100   -0.1860   -1.0617 H         1 <0>         0.0642
     23 H6          0.3646   -0.1485    0.7170 H         1 <0>         0.0611
     24 H7         -2.1960   -0.0617   -0.9395 H         1 <0>         0.0760
     25 H8         -1.6957   -0.4550    2.0460 H         1 <0>         0.0659
     26 H9         -2.3203    1.0322    1.2922 H         1 <0>         0.0825
     27 H10        -4.1377   -0.4423    2.2277 H         1 <0>         0.0841
     28 H11        -4.2976   -0.1629    0.4745 H         1 <0>         0.0800
     29 H12        -2.8533   -3.6524   -0.1511 H         1 <0>         0.0965
     30 H13        -3.4606   -2.2547   -1.0755 H         1 <0>         0.0760
     31 H14        -1.0105   -2.2413   -1.1335 H         1 <0>         0.0812
     32 H15        -0.9377   -2.3494    0.6423 H         1 <0>         0.0674
     33 H16        -8.0401   -1.6065    5.5934 H         1 <0>         0.0832
     34 H17        -6.9530   -0.3219    6.1732 H         1 <0>         0.0811
     35 H18        -7.7599   -0.1599    4.5949 H         1 <0>         0.0831
@<TRIPOS>BOND
     1    1    2 1
     2    1   19 1
     3    1   20 1
     4    1   21 1
     5    2    3 1
     6    2   22 1
     7    2   23 1
     8    3    8 1
     9    3    4 1
    10    3   24 1
    11    4    5 1
    12    4   25 1
    13    4   26 1
    14    5    6 1
    15    5   27 1
    16    5   28 1
    17    6    7 1
    18    6    9 am
    19    7    8 1
    20    7   29 1
    21    7   30 1
    22    8   31 1
    23    8   32 1
    24    9   10 2
    25    9   11 1
    26   11   15 1
    27   11   12 2
    28   12   13 1
    29   12   18 1
    30   13   14 2
    31   13   17 1
    32   14   15 1
    33   15   16 1
    34   17   33 1
    35   17   34 1
    36   17   35 1
@<TRIPOS>MOLECULE
ZINC58647367
   41    44     0     0     0
SMALL
USER_CHARGES

@<TRIPOS>ATOM
      1 C1         -0.0822    1.2294   -0.1280 C.ar      1 <0>        -0.1116
      2 C2          1.0833    1.9732   -0.1215 C.ar      1 <0>        -0.1218
      3 C3          2.3045    1.3325   -0.0916 C.ar      1 <0>        -0.0974
      4 C4          2.3735   -0.0547   -0.0704 C.ar      1 <0>        -0.0687
      5 C5          1.2132   -0.7954   -0.0820 C.ar      1 <0>        -0.0645
      6 C6         -0.0157   -0.1482   -0.1076 C.ar      1 <0>        -0.1231
      7 C7          1.2128   -2.3017   -0.0766 C.3       1 <0>        -0.0845
      8 C8          2.5680   -2.8377    0.3804 C.3       1 <0>        -0.1173
      9 C9          3.6628   -2.1557   -0.4484 C.3       1 <0>        -0.1110
     10 C10         3.7395   -0.6885   -0.0311 C.3       1 <0>        -0.0639
     11 H1          4.1371   -0.6231    0.9816 H         1 <0>         0.1045
     12 C11         4.6566    0.0487   -0.9727 C.2       1 <0>         0.5270
     13 O1          4.2120    0.5503   -1.9837 O.2       1 <0>        -0.4949
     14 N1          5.9707    0.1506   -0.6915 N.am      1 <0>        -0.5602
     15 C12         6.5526   -0.5322    0.4738 C.3       1 <0>         0.0871
     16 C13         7.5266    0.3970    1.1519 C.2       1 <0>         0.5119
     17 O2          7.7176    0.2973    2.3456 O.2       1 <0>        -0.5109
     18 N2          8.1877    1.3360    0.4490 N.am      1 <0>        -0.6552
     19 C14         7.9499    1.5048   -0.9193 C.ar      1 <0>         0.1278
     20 C15         6.8290    0.9070   -1.5048 C.ar      1 <0>         0.1083
     21 C16         6.5779    1.0651   -2.8554 C.ar      1 <0>        -0.0909
     22 C17         7.4453    1.8135   -3.6318 C.ar      1 <0>        -0.1190
     23 C18         8.5588    2.4011   -3.0604 C.ar      1 <0>        -0.0991
     24 C19         8.8131    2.2545   -1.7017 C.ar      1 <0>        -0.1337
     25 H2         -1.0414    1.7254   -0.1446 H         1 <0>         0.1236
     26 H3          1.0377    3.0521   -0.1401 H         1 <0>         0.1223
     27 H4          3.2144    1.9142   -0.0850 H         1 <0>         0.1122
     28 H5         -0.9265   -0.7285   -0.1118 H         1 <0>         0.1233
     29 H6          0.4379   -2.6584    0.6018 H         1 <0>         0.0791
     30 H7          1.0036   -2.6646   -1.0829 H         1 <0>         0.0797
     31 H8          2.7141   -2.6132    1.4370 H         1 <0>         0.0710
     32 H9          2.6077   -3.9158    0.2248 H         1 <0>         0.0778
     33 H10         4.6207   -2.6411   -0.2615 H         1 <0>         0.0756
     34 H11         3.4169   -2.2236   -1.5081 H         1 <0>         0.0786
     35 H12         5.7600   -0.8021    1.1716 H         1 <0>         0.1333
     36 H13         7.0742   -1.4316    0.1465 H         1 <0>         0.1162
     37 H14         8.8365    1.9016    0.8963 H         1 <0>         0.4165
     38 H15         5.7087    0.6060   -3.3027 H         1 <0>         0.1515
     39 H16         7.2521    1.9386   -4.6870 H         1 <0>         0.1326
     40 H17         9.2328    2.9824   -3.6722 H         1 <0>         0.1325
     41 H18         9.6839    2.7145   -1.2584 H         1 <0>         0.1351
@<TRIPOS>BOND
     1    1    6 ar
     2    1    2 ar
     3    1   25 1
     4    2    3 ar
     5    2   26 1
     6    3    4 ar
     7    3   27 1
     8    4   10 1
     9    4    5 ar
    10    5    6 ar
    11    5    7 1
    12    6   28 1
    13    7    8 1
    14    7   29 1
    15    7   30 1
    16    8    9 1
    17    8   31 1
    18    8   32 1
    19    9   10 1
    20    9   33 1
    21    9   34 1
    22   10   11 1
    23   10   12 1
    24   12   13 2
    25   12   14 am
    26   14   20 1
    27   14   15 1
    28   15   16 1
    29   15   35 1
    30   15   36 1
    31   16   17 2
    32   16   18 am
    33   18   19 1
    34   18   37 1
    35   19   24 ar
    36   19   20 ar
    37   20   21 ar
    38   21   22 ar
    39   21   38 1
    40   22   23 ar
    41   22   39 1
    42   23   24 ar
    43   23   40 1
    44   24   41 1
@<TRIPOS>MOLECULE
ZINC01510894
   37    40     0     0     0
SMALL
USER_CHARGES
N-(2-oxochromen-3-yl)naphthalene-1-carboxamide
@<TRIPOS>ATOM
      1 C1          1.1495    1.7736   -0.1721 C.ar      1 <0>        -0.1132
      2 C2          1.1507    3.1664   -0.1499 C.ar      1 <0>        -0.1096
      3 C3         -0.0165    3.8670   -0.0920 C.ar      1 <0>        -0.1203
      4 C4         -1.2373    3.1799   -0.0542 C.ar      1 <0>        -0.0083
      5 C5         -1.2411    1.7642   -0.0826 C.ar      1 <0>        -0.0621
      6 C6         -0.0177    1.0738   -0.1366 C.ar      1 <0>        -0.1072
      7 C7         -2.4646    1.0736   -0.0389 C.ar      1 <0>        -0.0643
      8 C8         -3.6382    1.7641    0.0195 C.ar      1 <0>        -0.1327
      9 C9         -3.6551    3.1528    0.0420 C.ar      1 <0>        -0.0632
     10 C10        -2.4711    3.8752    0.0062 C.ar      1 <0>        -0.1327
     11 C11        -2.4960    5.3490    0.0304 C.2       1 <0>         0.5684
     12 O1         -1.4552    5.9736    0.1070 O.2       1 <0>        -0.5126
     13 N1         -3.6721    6.0042   -0.0324 N.am      1 <0>        -0.6447
     14 C12        -3.6910    7.3994   -0.1304 C.2       1 <0>         0.0145
     15 C13        -2.7156    8.0565   -0.8176 C.2       1 <0>        -0.0226
     16 C14        -2.7842    9.5184   -0.8945 C.ar      1 <0>        -0.1326
     17 C15        -1.8100   10.2409   -1.5933 C.ar      1 <0>        -0.0566
     18 C16        -1.8863   11.6038   -1.6511 C.ar      1 <0>        -0.1352
     19 C17        -2.9231   12.2773   -1.0216 C.ar      1 <0>        -0.0681
     20 C18        -3.8924   11.5843   -0.3277 C.ar      1 <0>        -0.1274
     21 C19        -3.8355   10.1971   -0.2558 C.ar      1 <0>         0.1279
     22 O2         -4.7820    9.5121    0.4208 O.3       1 <0>        -0.2558
     23 C20        -4.7556    8.1734    0.5090 C.2       1 <0>         0.5170
     24 O3         -5.6289    7.5950    1.1295 O.2       1 <0>        -0.4514
     25 H1          2.0881    1.2412   -0.2185 H         1 <0>         0.1256
     26 H2          2.0901    3.6984   -0.1793 H         1 <0>         0.1259
     27 H3         -0.0009    4.9468   -0.0757 H         1 <0>         0.1672
     28 H4         -0.0040   -0.0059   -0.1544 H         1 <0>         0.1306
     29 H5         -2.4748   -0.0062   -0.0558 H         1 <0>         0.1349
     30 H6         -4.5717    1.2218    0.0484 H         1 <0>         0.1346
     31 H7         -4.5991    3.6754    0.0881 H         1 <0>         0.1292
     32 H8         -4.5054    5.5083   -0.0095 H         1 <0>         0.4188
     33 H9         -1.9143    7.5138   -1.2969 H         1 <0>         0.1626
     34 H10        -1.0003    9.7225   -2.0852 H         1 <0>         0.1400
     35 H11        -1.1341   12.1606   -2.1902 H         1 <0>         0.1369
     36 H12        -2.9712   13.3549   -1.0753 H         1 <0>         0.1415
     37 H13        -4.6950   12.1184    0.1590 H         1 <0>         0.1450
@<TRIPOS>BOND
     1    1    6 ar
     2    1    2 ar
     3    1   25 1
     4    2    3 ar
     5    2   26 1
     6    3    4 ar
     7    3   27 1
     8    4   10 ar
     9    4    5 ar
    10    5    6 ar
    11    5    7 ar
    12    6   28 1
    13    7    8 ar
    14    7   29 1
    15    8    9 ar
    16    8   30 1
    17    9   10 ar
    18    9   31 1
    19   10   11 1
    20   11   12 2
    21   11   13 am
    22   13   14 1
    23   13   32 1
    24   14   23 1
    25   14   15 2
    26   15   16 1
    27   15   33 1
    28   16   21 ar
    29   16   17 ar
    30   17   18 ar
    31   17   34 1
    32   18   19 ar
    33   18   35 1
    34   19   20 ar
    35   19   36 1
    36   20   21 ar
    37   20   37 1
    38   21   22 1
    39   22   23 1
    40   23   24 2
@<TRIPOS>MOLECULE
ZINC27926152
   32    34     0     0     0
SMALL
USER_CHARGES
4-chloro-N-(5-quinolyl)benzenesulfonamide
@<TRIPOS>ATOM
      1 C1          0.1883    3.9734   -0.3859 C.2       1 <0>        -0.0702
      2 C2          1.3114    3.2117   -0.5027 C.2       1 <0>        -0.1080
      3 C3          1.2212    1.8109   -0.4437 C.2       1 <0>         0.1454
      4 C4         -0.0474    1.2065   -0.2627 C.2       1 <0>        -0.1136
      5 C5         -0.1339   -0.1947   -0.2042 C.2       1 <0>        -0.0561
      6 C6          1.0195   -0.9182   -0.3256 C.2       1 <0>        -0.1743
      7 C7          2.2352   -0.2627   -0.5016 C.2       1 <0>         0.1377
      8 N1          2.3120    1.0452   -0.5561 N.2       1 <0>        -0.4722
      9 C8         -1.1942    2.0187   -0.1392 C.2       1 <0>         0.1815
     10 C9         -1.0617    3.3905   -0.2084 C.2       1 <0>        -0.1787
     11 N2         -2.4475    1.4420    0.0445 N.pl3     1 <0>        -1.0638
     12 S1         -3.7849    2.1288   -0.6498 S.o2      1 <0>         2.6944
     13 O1         -4.8714    1.2489   -0.3960 O.2       1 <0>        -0.9432
     14 O2         -3.7976    3.4912   -0.2461 O.2       1 <0>        -0.9414
     15 C10        -3.5282    2.1224   -2.3930 C.ar      1 <0>        -0.6790
     16 C11        -2.9165    3.2004   -3.0052 C.ar      1 <0>        -0.0019
     17 C12        -2.7098    3.1934   -4.3718 C.ar      1 <0>        -0.1302
     18 C13        -3.1255    2.1124   -5.1286 C.ar      1 <0>         0.0216
     19 C14        -3.7428    1.0364   -4.5160 C.ar      1 <0>        -0.1318
     20 C15        -3.9438    1.0419   -3.1486 C.ar      1 <0>        -0.0038
     21 Cl1        -2.8721    2.1059   -6.8460 Cl        1 <0>        -0.0489
     22 H1          0.2700    5.0493   -0.4324 H         1 <0>         0.1397
     23 H2          2.2724    3.6850   -0.6404 H         1 <0>         0.1393
     24 H3         -1.0855   -0.6866   -0.0668 H         1 <0>         0.1367
     25 H4          0.9878   -1.9970   -0.2853 H         1 <0>         0.1407
     26 H5          3.1387   -0.8468   -0.5960 H         1 <0>         0.1622
     27 H6         -1.9364    4.0175   -0.1186 H         1 <0>         0.1656
     28 H7         -2.5960    4.0461   -2.4150 H         1 <0>         0.1512
     29 H8         -2.2279    4.0337   -4.8495 H         1 <0>         0.1472
     30 H9         -4.0672    0.1920   -5.1062 H         1 <0>         0.1468
     31 H10        -4.4254    0.2019   -2.6703 H         1 <0>         0.1512
     32 H11        -2.5497    0.5300    0.6509 H         1 <0>         0.4561
@<TRIPOS>BOND
     1    1   10 2
     2    1    2 1
     3    1   22 1
     4    2    3 2
     5    2   23 1
     6    3    8 1
     7    3    4 1
     8    4    5 2
     9    4    9 1
    10    5    6 1
    11    5   24 1
    12    6    7 2
    13    6   25 1
    14    7    8 1
    15    7   26 1
    16    9   10 1
    17    9   11 2
    18   10   27 1
    19   11   12 1
    20   11   32 1
    21   12   13 2
    22   12   14 2
    23   12   15 1
    24   15   20 ar
    25   15   16 ar
    26   16   17 ar
    27   16   28 1
    28   17   18 ar
    29   17   29 1
    30   18   19 ar
    31   18   21 1
    32   19   20 ar
    33   19   30 1
    34   20   31 1
@<TRIPOS>MOLECULE
ZINC00130263
   37    40     0     0     0
SMALL
USER_CHARGES

@<TRIPOS>ATOM
      1 C1          0.2367    0.9227    1.7762 C.ar      1 <0>        -0.1142
      2 C2          1.4230    1.6537    1.7908 C.ar      1 <0>        -0.1128
      3 C3          2.5514    1.1694    1.2026 C.ar      1 <0>        -0.1095
      4 C4          2.5231   -0.0842    0.5719 C.ar      1 <0>        -0.0619
      5 C5          1.3177   -0.8286    0.5569 C.ar      1 <0>        -0.0365
      6 C6          0.1724   -0.2962    1.1741 C.ar      1 <0>        -0.1040
      7 C7          1.2880   -2.0842   -0.0732 C.ar      1 <0>        -0.1200
      8 C8          2.4127   -2.5758   -0.6629 C.ar      1 <0>        -0.0954
      9 C9          3.6025   -1.8543   -0.6542 C.ar      1 <0>        -0.1201
     10 C10         3.6730   -0.6184   -0.0476 C.ar      1 <0>         0.1484
     11 N1          4.8706    0.0973   -0.0453 N.am      1 <0>        -0.6589
     12 C11         6.0460   -0.5563    0.0417 C.2       1 <0>         0.5822
     13 O1          6.0676   -1.7724    0.0359 O.2       1 <0>        -0.5138
     14 C12         7.3040    0.2018    0.1438 C.2       1 <0>        -0.2845
     15 C13         8.5305   -0.4433    0.2290 C.2       1 <0>         0.0911
     16 C14         9.6967    0.3544    0.3573 C.ar      1 <0>        -0.1722
     17 C15        10.9700   -0.2233    0.2469 C.ar      1 <0>        -0.0386
     18 C16        12.0818    0.5645    0.3310 C.ar      1 <0>        -0.1419
     19 C17        11.9641    1.9328    0.5332 C.ar      1 <0>        -0.0466
     20 C18        10.7224    2.5194    0.6640 C.ar      1 <0>        -0.1362
     21 C19         9.5777    1.7374    0.5890 C.ar      1 <0>         0.1523
     22 O2          8.3547    2.2948    0.7589 O.3       1 <0>        -0.2674
     23 C20         7.3117    1.6761    0.1534 C.2       1 <0>         0.5279
     24 O3          6.4112    2.3131   -0.3603 O.2       1 <0>        -0.4392
     25 H1         -0.6435    1.3273    2.2536 H         1 <0>         0.1252
     26 H2          1.4475    2.6186    2.2754 H         1 <0>         0.1248
     27 H3          3.4637    1.7472    1.2209 H         1 <0>         0.1207
     28 H4         -0.7539   -0.8516    1.1705 H         1 <0>         0.1303
     29 H5          0.3739   -2.6591   -0.0896 H         1 <0>         0.1295
     30 H6          2.3808   -3.5417   -1.1449 H         1 <0>         0.1285
     31 H7          4.4807   -2.2671   -1.1285 H         1 <0>         0.1417
     32 H8          4.8572    1.0653   -0.1063 H         1 <0>         0.4198
     33 H9          8.5949   -1.5210    0.1988 H         1 <0>         0.1693
     34 H10        11.0706   -1.2880    0.0962 H         1 <0>         0.1460
     35 H11        13.0615    0.1192    0.2398 H         1 <0>         0.1412
     36 H12        12.8529    2.5438    0.5890 H         1 <0>         0.1455
     37 H13        10.6410    3.5843    0.8248 H         1 <0>         0.1490
@<TRIPOS>BOND
     1    1    6 ar
     2    1    2 ar
     3    1   25 1
     4    2    3 ar
     5    2   26 1
     6    3    4 ar
     7    3   27 1
     8    4   10 ar
     9    4    5 ar
    10    5    6 ar
    11    5    7 ar
    12    6   28 1
    13    7    8 ar
    14    7   29 1
    15    8    9 ar
    16    8   30 1
    17    9   10 ar
    18    9   31 1
    19   10   11 1
    20   11   12 am
    21   11   32 1
    22   12   13 2
    23   12   14 1
    24   14   23 1
    25   14   15 2
    26   15   16 1
    27   15   33 1
    28   16   21 ar
    29   16   17 ar
    30   17   18 ar
    31   17   34 1
    32   18   19 ar
    33   18   35 1
    34   19   20 ar
    35   19   36 1
    36   20   21 ar
    37   20   37 1
    38   21   22 1
    39   22   23 1
    40   23   24 2
@<TRIPOS>MOLECULE
ZINC49284634
   38    39     0     0     0
SMALL
USER_CHARGES

@<TRIPOS>ATOM
      1 C1         -0.0251    1.5235    0.0133 C.3       1 <0>        -0.1458
      2 C2         -0.0024   -0.0063    0.0038 C.3       1 <0>         0.0716
      3 H1         -1.0242   -0.3856    0.0108 H         1 <0>         0.0679
      4 C3          0.7184   -0.4999   -1.2559 C.3       1 <0>         0.0815
      5 N1          0.8921   -1.9573   -1.1503 N.am      1 <0>        -0.6293
      6 C4          1.4815   -2.4957    0.0858 C.3       1 <0>         0.1082
      7 C5          0.7236   -1.9049    1.2802 C.3       1 <0>         0.0992
      8 O1          0.6911   -0.4807    1.1604 O.3       1 <0>        -0.3652
      9 C6         -0.7066   -2.4481    1.2972 C.3       1 <0>        -0.1746
     10 C7          1.4340   -2.2925    2.5786 C.3       1 <0>        -0.1377
     11 C8          0.5227   -2.7747   -2.1561 C.2       1 <0>         0.7125
     12 O2          0.7567   -3.9659   -2.0886 O.2       1 <0>        -0.5819
     13 N2         -0.1062   -2.2718   -3.2369 N.am      1 <0>        -0.7455
     14 C9         -0.6068   -3.1724   -4.2782 C.3       1 <0>         0.2249
     15 C10        -1.2637   -2.3647   -5.3678 C.2       1 <0>        -0.1694
     16 C11        -0.7149   -1.8419   -6.4911 C.2       1 <0>        -0.1225
     17 C12        -1.5184   -1.1270   -7.3601 C.2       1 <0>        -0.1432
     18 C13        -2.8324   -0.9704   -7.0617 C.2       1 <0>        -0.1133
     19 S1         -2.9681   -1.8551   -5.5170 S.3       1 <0>         0.1083
     20 Cl1        -4.0639   -0.1330   -7.9538 Cl        1 <0>         0.0221
     21 H2          0.9970    1.9021    0.0062 H         1 <0>         0.0673
     22 H3         -0.5524    1.8846   -0.8697 H         1 <0>         0.0737
     23 H4         -0.5361    1.8737    0.9101 H         1 <0>         0.0699
     24 H5          0.1211   -0.2642   -2.1367 H         1 <0>         0.0841
     25 H6          1.6933   -0.0186   -1.3334 H         1 <0>         0.0809
     26 H7          1.3896   -3.5818    0.0936 H         1 <0>         0.1038
     27 H8          2.5333   -2.2154    0.1434 H         1 <0>         0.0752
     28 H9         -0.6817   -3.5343    1.3844 H         1 <0>         0.0698
     29 H10        -1.2449   -2.0276    2.1466 H         1 <0>         0.0661
     30 H11        -1.2122   -2.1694    0.3726 H         1 <0>         0.0581
     31 H12         2.4520   -1.9029    2.5661 H         1 <0>         0.0672
     32 H13         0.8946   -1.8720    3.4274 H         1 <0>         0.0696
     33 H14         1.4616   -3.3785    2.6675 H         1 <0>         0.0758
     34 H15        -0.2274   -1.3134   -3.3252 H         1 <0>         0.3980
     35 H16         0.2238   -3.7403   -4.6975 H         1 <0>         0.0962
     36 H17        -1.3347   -3.8589   -3.8458 H         1 <0>         0.0853
     37 H18         0.3346   -1.9814   -6.7043 H         1 <0>         0.1454
     38 H19        -1.1061   -0.6995   -8.2622 H         1 <0>         0.1456
@<TRIPOS>BOND
     1    1    2 1
     2    1   21 1
     3    1   22 1
     4    1   23 1
     5    2    3 1
     6    2    8 1
     7    2    4 1
     8    4    5 1
     9    4   24 1
    10    4   25 1
    11    5    6 1
    12    5   11 am
    13    6    7 1
    14    6   26 1
    15    6   27 1
    16    7    8 1
    17    7    9 1
    18    7   10 1
    19    9   28 1
    20    9   29 1
    21    9   30 1
    22   10   31 1
    23   10   32 1
    24   10   33 1
    25   11   12 2
    26   11   13 am
    27   13   14 1
    28   13   34 1
    29   14   15 1
    30   14   35 1
    31   14   36 1
    32   15   19 1
    33   15   16 2
    34   16   17 1
    35   16   37 1
    36   17   18 2
    37   17   38 1
    38   18   19 1
    39   18   20 1
@<TRIPOS>MOLECULE
ZINC60944413
   31    33     0     0     0
SMALL
USER_CHARGES

@<TRIPOS>ATOM
      1 C1         -0.0167    1.3797    0.0096 C.ar      1 <0>        -0.0950
      2 C2          1.1676    2.0954    0.0022 C.ar      1 <0>        -0.1303
      3 C3          2.3783    1.4324   -0.0218 C.ar      1 <0>        -0.0822
      4 C4          2.4027    0.0407   -0.0442 C.ar      1 <0>        -0.0935
      5 C5          1.2050   -0.6767   -0.0164 C.ar      1 <0>        -0.0491
      6 C6          0.0021   -0.0041    0.0020 C.ar      1 <0>        -0.1244
      7 C7          1.2438   -2.1820    0.0160 C.3       1 <0>        -0.0833
      8 C8          2.4262   -2.6905   -0.8060 C.3       1 <0>        -0.0565
      9 C9          3.6921   -1.9784   -0.4159 C.2       1 <0>        -0.6593
     10 C10         3.6807   -0.6993   -0.0759 C.2       1 <0>         0.0511
     11 S1          5.2165   -2.8620   -0.4115 S.o2      1 <0>         2.6170
     12 O1          6.1798   -2.0069    0.1886 O.2       1 <0>        -0.9805
     13 O2          4.9320   -4.1603    0.0913 O.2       1 <0>        -0.9729
     14 N1          5.6746   -3.0560   -1.9910 N.2       1 <0>        -0.9481
     15 C11         6.7863   -3.6873   -2.2779 C.2       1 <0>         0.4717
     16 N2          7.7065   -4.2654   -1.4303 N.pl3     1 <0>        -0.6607
     17 C12         8.8002   -4.8730   -1.9741 C.2       1 <0>         0.0614
     18 C13         8.9641   -4.8999   -3.2967 C.2       1 <0>        -0.2161
     19 S2          7.5114   -4.0360   -3.8728 S.3       1 <0>         0.1210
     20 H1         -0.9608    1.9039    0.0260 H         1 <0>         0.1279
     21 H2          1.1447    3.1751    0.0148 H         1 <0>         0.1293
     22 H3          3.3026    1.9911   -0.0236 H         1 <0>         0.1311
     23 H4         -0.9257   -0.5568    0.0108 H         1 <0>         0.1293
     24 H5          1.3482   -2.5193    1.0472 H         1 <0>         0.0842
     25 H6          0.3171   -2.5770   -0.4004 H         1 <0>         0.0886
     26 H7          2.5488   -3.7600   -0.6347 H         1 <0>         0.0891
     27 H8          2.2286   -2.5176   -1.8639 H         1 <0>         0.0862
     28 H9          4.6032   -0.1980    0.1772 H         1 <0>         0.1460
     29 H10         9.5356   -5.3333   -1.3310 H         1 <0>         0.1877
     30 H11         9.7671   -5.3362   -3.8722 H         1 <0>         0.2144
     31 H12         7.5795   -4.2405   -0.4690 H         1 <0>         0.4159
@<TRIPOS>BOND
     1    1    6 ar
     2    1    2 ar
     3    1   20 1
     4    2    3 ar
     5    2   21 1
     6    3    4 ar
     7    3   22 1
     8    4   10 1
     9    4    5 ar
    10    5    6 ar
    11    5    7 1
    12    6   23 1
    13    7    8 1
    14    7   24 1
    15    7   25 1
    16    8    9 1
    17    8   26 1
    18    8   27 1
    19    9   10 2
    20    9   11 1
    21   10   28 1
    22   11   12 2
    23   11   13 2
    24   11   14 1
    25   14   15 2
    26   15   19 1
    27   15   16 1
    28   16   17 1
    29   16   31 1
    30   17   18 2
    31   17   29 1
    32   18   19 1
    33   18   30 1
@<TRIPOS>MOLECULE
ZINC02280051
   44    48     0     0     0
SMALL
USER_CHARGES
ethylsulfanyl-(p-tolyl)BLAHone
@<TRIPOS>ATOM
      1 C1         -4.9660    6.6298   -6.0082 C.3       1 <0>        -0.1404
      2 C2         -3.6409    5.8980   -6.2304 C.3       1 <0>        -0.1023
      3 S1         -3.3729    4.7109   -4.8851 S.3       1 <0>         0.0059
      4 C3         -1.8286    3.9601   -5.2805 C.2       1 <0>         0.2125
      5 N1         -1.0841    4.2347   -6.3237 N.2       1 <0>        -0.2741
      6 N2          0.0550    3.4222   -6.2703 N.2       1 <0>        -0.2921
      7 C4         -0.0277    2.6745   -5.1951 C.2       1 <0>         0.4676
      8 N3         -1.1972    2.9874   -4.5516 N.pl3     1 <0>        -0.4041
      9 C5         -1.5354    2.3434   -3.3819 C.2       1 <0>         0.0323
     10 C6         -0.7227    1.3698   -2.8177 C.2       1 <0>        -0.1797
     11 C7         -1.2131    0.7683   -1.5665 C.2       1 <0>        -0.0670
     12 C8         -2.3893    1.2331   -1.1153 C.2       1 <0>        -0.1968
     13 S2         -2.8782    2.4548   -2.3085 S.3       1 <0>         0.2759
     14 C9         -2.8061    0.5657    0.1675 C.3       1 <0>        -0.0329
     15 C10        -1.5119   -0.0918    0.7027 C.3       1 <0>        -0.1161
     16 C11        -0.7085   -0.3008   -0.5966 C.3       1 <0>        -0.0621
     17 C12         0.5314    1.0573   -3.5392 C.2       1 <0>         0.5797
     18 O1          1.2943    0.2138   -3.1044 O.2       1 <0>        -0.4761
     19 N4          0.8226    1.7100   -4.6772 N.am      1 <0>        -0.4631
     20 C13         2.0104    1.4093   -5.3544 C.ar      1 <0>         0.1092
     21 C14         2.0270    0.4122   -6.3210 C.ar      1 <0>        -0.0834
     22 C15         3.1994    0.1209   -6.9903 C.ar      1 <0>        -0.1106
     23 C16         4.3581    0.8143   -6.6922 C.ar      1 <0>        -0.0635
     24 C17         4.3461    1.8041   -5.7265 C.ar      1 <0>        -0.1106
     25 C18         3.1759    2.1035   -5.0570 C.ar      1 <0>        -0.0834
     26 C19         5.6369    0.4902   -7.4208 C.3       1 <0>        -0.1190
     27 H1         -5.7820    5.9073   -5.9932 H         1 <0>         0.0701
     28 H2         -4.9330    7.1604   -5.0567 H         1 <0>         0.0701
     29 H3         -5.1271    7.3431   -6.8165 H         1 <0>         0.0877
     30 H4         -2.8249    6.6205   -6.2453 H         1 <0>         0.1018
     31 H5         -3.6739    5.3674   -7.1819 H         1 <0>         0.1018
     32 H6         -3.1783    1.3047    0.8771 H         1 <0>         0.0874
     33 H7         -3.5666   -0.1905   -0.0269 H         1 <0>         0.0937
     34 H8         -1.7278   -1.0449    1.1854 H         1 <0>         0.0907
     35 H9         -0.9860    0.5780    1.3830 H         1 <0>         0.0810
     36 H10        -0.8965   -1.2955   -1.0006 H         1 <0>         0.0885
     37 H11         0.3565   -0.1661   -0.4075 H         1 <0>         0.0848
     38 H12         1.1233   -0.1325   -6.5514 H         1 <0>         0.1253
     39 H13         3.2121   -0.6518   -7.7448 H         1 <0>         0.1339
     40 H14         5.2527    2.3438   -5.4960 H         1 <0>         0.1339
     41 H15         3.1673    2.8764   -4.3027 H         1 <0>         0.1254
     42 H16         6.1774   -0.2856   -6.8785 H         1 <0>         0.0762
     43 H17         5.4032    0.1360   -8.4248 H         1 <0>         0.0709
     44 H18         6.2548    1.3857   -7.4861 H         1 <0>         0.0709
@<TRIPOS>BOND
     1    1    2 1
     2    1   27 1
     3    1   28 1
     4    1   29 1
     5    2    3 1
     6    2   30 1
     7    2   31 1
     8    3    4 1
     9    4    8 1
    10    4    5 2
    11    5    6 1
    12    6    7 2
    13    7   19 1
    14    7    8 1
    15    8    9 1
    16    9   13 1
    17    9   10 2
    18   10   11 1
    19   10   17 1
    20   11   16 1
    21   11   12 2
    22   12   13 1
    23   12   14 1
    24   14   15 1
    25   14   32 1
    26   14   33 1
    27   15   16 1
    28   15   34 1
    29   15   35 1
    30   16   36 1
    31   16   37 1
    32   17   18 2
    33   17   19 am
    34   19   20 1
    35   20   25 ar
    36   20   21 ar
    37   21   22 ar
    38   21   38 1
    39   22   23 ar
    40   22   39 1
    41   23   24 ar
    42   23   26 1
    43   24   25 ar
    44   24   40 1
    45   25   41 1
    46   26   42 1
    47   26   43 1
    48   26   44 1
@<TRIPOS>MOLECULE
ZINC06414782
   36    38     0     0     0
SMALL
USER_CHARGES
(NZ)-5-chloro-N-(6-methylsulfonyl-3-prop-2-ynyl-1,3-benzothiazol-2-ylidene)thiophene-2-carboxamide
@<TRIPOS>ATOM
      1 C1         -8.2115   -2.8028    1.7778 C.3       1 <0>        -0.6491
      2 S1         -7.8903   -2.4636    0.0249 S.o2      1 <0>         2.5050
      3 O1         -9.0235   -1.8459   -0.5697 O.2       1 <0>        -0.9311
      4 O2         -7.2744   -3.5888   -0.5865 O.2       1 <0>        -0.9313
      5 C2         -6.6465   -1.2155    0.0257 C.ar      1 <0>        -0.6665
      6 C3         -6.9971    0.1242    0.0346 C.ar      1 <0>         0.0133
      7 C4         -6.0415    1.1113    0.0354 C.ar      1 <0>        -0.1324
      8 C5         -4.6728    0.7911    0.0281 C.ar      1 <0>         0.1786
      9 C6         -4.3501   -0.5739    0.0192 C.ar      1 <0>        -0.1991
     10 C7         -5.3068   -1.5612    0.0180 C.ar      1 <0>         0.0652
     11 S2         -2.5737   -0.5764    0.0032 S.3       1 <0>         0.1238
     12 C8         -2.3245    1.1914    0.0195 C.2       1 <0>         0.4583
     13 N1         -1.1844    1.8704    0.0178 N.2       1 <0>        -0.5825
     14 C9         -0.0145    1.2159    0.0087 C.2       1 <0>         0.5818
     15 O3          0.0021   -0.0041    0.0020 O.2       1 <0>        -0.5024
     16 C10         1.2480    1.9679    0.0007 C.2       1 <0>        -0.2085
     17 C11         2.5476    1.4908   -0.0086 C.2       1 <0>        -0.0676
     18 C12         3.5568    2.4224   -0.0193 C.2       1 <0>        -0.1626
     19 C13         3.2385    3.7443   -0.0086 C.2       1 <0>        -0.1419
     20 S3          1.5050    3.7333    0.0083 S.3       1 <0>         0.2370
     21 Cl1         4.3084    5.1115   -0.0107 Cl        1 <0>         0.0251
     22 N2         -3.6023    1.6671    0.0282 N.pl3     1 <0>        -0.4996
     23 C14        -3.8425    3.1123    0.0372 C.3       1 <0>         0.2128
     24 C15        -3.9289    3.6039   -1.3476 C.1       1 <0>        -0.2329
     25 C16        -3.9979    3.9960   -2.4520 C.1       1 <0>        -0.1376
     26 H1         -8.5551   -1.8914    2.2672 H         1 <0>         0.1334
     27 H2         -8.9781   -3.5728    1.8643 H         1 <0>         0.1362
     28 H3         -7.2943   -3.1479    2.2551 H         1 <0>         0.1333
     29 H4         -8.0417    0.3983    0.0407 H         1 <0>         0.1579
     30 H5         -6.3460    2.1475    0.0424 H         1 <0>         0.1442
     31 H6         -5.0142   -2.6008    0.0113 H         1 <0>         0.1601
     32 H7          2.7587    0.4316   -0.0110 H         1 <0>         0.1561
     33 H8          4.5903    2.1090   -0.0308 H         1 <0>         0.1495
     34 H9         -4.7778    3.3219    0.5562 H         1 <0>         0.1185
     35 H10        -3.0219    3.6138    0.5502 H         1 <0>         0.1306
     36 H11        -4.0595    4.3467   -3.4398 H         1 <0>         0.2244
@<TRIPOS>BOND
     1    1    2 1
     2    1   26 1
     3    1   27 1
     4    1   28 1
     5    2    3 2
     6    2    4 2
     7    2    5 1
     8    5   10 ar
     9    5    6 ar
    10    6    7 ar
    11    6   29 1
    12    7    8 ar
    13    7   30 1
    14    8   22 1
    15    8    9 ar
    16    9   10 ar
    17    9   11 1
    18   10   31 1
    19   11   12 1
    20   12   13 2
    21   12   22 1
    22   13   14 1
    23   14   15 2
    24   14   16 1
    25   16   20 1
    26   16   17 2
    27   17   18 1
    28   17   32 1
    29   18   19 2
    30   18   33 1
    31   19   20 1
    32   19   21 1
    33   22   23 1
    34   23   24 1
    35   23   34 1
    36   23   35 1
    37   24   25 3
    38   25   36 1
@<TRIPOS>MOLECULE
ZINC38608461
   52    54     0     0     0
SMALL
USER_CHARGES

@<TRIPOS>ATOM
      1 C1         -2.6874   -0.1165   -1.0378 C.3       1 <0>        -0.1173
      2 C2         -1.9571   -1.3851   -0.6794 C.ar      1 <0>        -0.0765
      3 C3         -1.6894   -2.3276   -1.6545 C.ar      1 <0>        -0.1280
      4 C4         -1.0196   -3.4912   -1.3258 C.ar      1 <0>        -0.0895
      5 C5         -0.6170   -3.7122   -0.0219 C.ar      1 <0>        -0.1233
      6 C6         -0.8839   -2.7693    0.9531 C.ar      1 <0>        -0.0890
      7 C7         -1.5500   -1.6037    0.6235 C.ar      1 <0>        -0.1272
      8 C8          0.1124   -4.9812    0.3367 C.3       1 <0>         0.1421
      9 N1          1.5549   -4.7749    0.1852 N.am      1 <0>        -0.5500
     10 C9          2.1359   -5.0305   -1.0008 C.2       1 <0>         0.5699
     11 O1          1.4618   -5.4292   -1.9319 O.2       1 <0>        -0.4970
     12 C10         3.5825   -4.8300   -1.1775 C.2       1 <0>        -0.2393
     13 C11         4.1857   -5.0928   -2.4031 C.2       1 <0>         0.1357
     14 C12         5.5660   -5.4005   -2.4611 C.ar      1 <0>        -0.1955
     15 C13         6.1086   -6.3737   -1.6039 C.ar      1 <0>        -0.0127
     16 C14         7.4393   -6.6659   -1.6643 C.ar      1 <0>        -0.2137
     17 C15         8.2617   -6.0009   -2.5738 C.ar      1 <0>         0.2579
     18 C16         7.7291   -5.0343   -3.4268 C.ar      1 <0>        -0.2101
     19 C17         6.3987   -4.7381   -3.3799 C.ar      1 <0>        -0.0193
     20 N2          9.6143   -6.3017   -2.6299 N.pl3     1 <0>        -0.6190
     21 C18        10.1769   -7.3161   -1.7351 C.3       1 <0>         0.0817
     22 C19        10.4807   -5.6051   -3.5840 C.3       1 <0>         0.0820
     23 C20         4.3520   -4.3662   -0.0854 C.2       1 <0>         0.1069
     24 C21         3.7148   -4.1151    1.1196 C.2       1 <0>        -0.1637
     25 C22         2.2696   -4.3286    1.2326 C.2       1 <0>         0.5757
     26 O2          1.7097   -4.1028    2.2895 O.2       1 <0>        -0.4940
     27 C23         4.4637   -3.6451    2.2461 C.1       1 <0>         0.2754
     28 N3          5.0577   -3.2722    3.1398 N.1       1 <0>        -0.4098
     29 C24         5.8364   -4.1495   -0.2289 C.3       1 <0>        -0.1537
     30 H1         -1.9667    0.6481   -1.3275 H         1 <0>         0.0710
     31 H2         -3.3656   -0.3101   -1.8689 H         1 <0>         0.0672
     32 H3         -3.2582    0.2299   -0.1762 H         1 <0>         0.0670
     33 H4         -2.0039   -2.1550   -2.6732 H         1 <0>         0.1225
     34 H5         -0.8110   -4.2279   -2.0875 H         1 <0>         0.1294
     35 H6         -0.5697   -2.9421    1.9718 H         1 <0>         0.1291
     36 H7         -1.7553   -0.8654    1.3844 H         1 <0>         0.1225
     37 H8         -0.1099   -5.2485    1.3698 H         1 <0>         0.1065
     38 H9         -0.2110   -5.7854   -0.3243 H         1 <0>         0.1073
     39 H10         3.6008   -5.0620   -3.3105 H         1 <0>         0.1522
     40 H11         5.4730   -6.8888   -0.8988 H         1 <0>         0.1319
     41 H12         7.8573   -7.4134   -1.0064 H         1 <0>         0.1333
     42 H13         8.3707   -4.5227   -4.1289 H         1 <0>         0.1329
     43 H14         5.9865   -3.9929   -4.0442 H         1 <0>         0.1353
     44 H15        10.1259   -8.2931   -2.2157 H         1 <0>         0.0578
     45 H16        11.2166   -7.0721   -1.5173 H         1 <0>         0.0739
     46 H17         9.6066   -7.3379   -0.8064 H         1 <0>         0.0751
     47 H18        10.8860   -4.7069   -3.1181 H         1 <0>         0.0577
     48 H19        11.2988   -6.2623   -3.8789 H         1 <0>         0.0737
     49 H20         9.9019   -5.3278   -4.4650 H         1 <0>         0.0751
     50 H21         6.0756   -3.9530   -1.2740 H         1 <0>         0.1028
     51 H22         6.1398   -3.2976    0.3797 H         1 <0>         0.0765
     52 H23         6.3676   -5.0412    0.1039 H         1 <0>         0.1006
@<TRIPOS>BOND
     1    1    2 1
     2    1   30 1
     3    1   31 1
     4    1   32 1
     5    2    7 ar
     6    2    3 ar
     7    3    4 ar
     8    3   33 1
     9    4    5 ar
    10    4   34 1
    11    5    6 ar
    12    5    8 1
    13    6    7 ar
    14    6   35 1
    15    7   36 1
    16    8    9 1
    17    8   37 1
    18    8   38 1
    19    9   25 am
    20    9   10 am
    21   10   11 2
    22   10   12 1
    23   12   13 2
    24   12   23 1
    25   13   14 1
    26   13   39 1
    27   14   19 ar
    28   14   15 ar
    29   15   16 ar
    30   15   40 1
    31   16   17 ar
    32   16   41 1
    33   17   18 ar
    34   17   20 1
    35   18   19 ar
    36   18   42 1
    37   19   43 1
    38   20   21 1
    39   20   22 1
    40   21   44 1
    41   21   45 1
    42   21   46 1
    43   22   47 1
    44   22   48 1
    45   22   49 1
    46   23   24 2
    47   23   29 1
    48   24   25 1
    49   24   27 1
    50   25   26 2
    51   27   28 3
    52   29   50 1
    53   29   51 1
    54   29   52 1
@<TRIPOS>MOLECULE
ZINC49550536
   44    47     0     0     0
SMALL
USER_CHARGES

@<TRIPOS>ATOM
      1 C1         -0.1542    1.5556    0.8406 C.3       1 <0>         0.0425
      2 N1         -0.0590    0.0950    0.7786 N.am      1 <0>        -0.5440
      3 C2         -1.1679   -0.6542    0.4900 C.2       1 <0>         0.3308
      4 C3         -0.9624   -1.9879    0.4510 C.2       1 <0>        -0.2368
      5 S1          0.7567   -2.1512    0.8242 S.3       1 <0>         0.1040
      6 C4          1.1235   -0.5169    1.0003 C.2       1 <0>         0.4745
      7 O1          2.1985   -0.0087    1.2659 O.2       1 <0>        -0.4517
      8 C5         -1.9924   -3.0240    0.1485 C.3       1 <0>         0.0596
      9 H1         -1.7774   -3.9319    0.7120 H         1 <0>         0.1270
     10 C6         -3.3638   -2.4706    0.5613 C.3       1 <0>        -0.1221
     11 C7         -3.4909   -1.0278    0.1597 C.2       1 <0>         0.5347
     12 O2         -4.5646   -0.6296   -0.2405 O.2       1 <0>        -0.4863
     13 N2         -2.4663   -0.1590    0.2246 N.am      1 <0>        -0.5017
     14 C8         -2.6809    1.2121    0.0329 C.ar      1 <0>         0.1663
     15 C9         -2.4669    1.7809   -1.2155 C.ar      1 <0>        -0.1240
     16 C10        -2.6796    3.1348   -1.4037 C.ar      1 <0>         0.1147
     17 C11        -3.1058    3.9236   -0.3465 C.ar      1 <0>         0.0516
     18 C12        -3.3193    3.3569    0.9005 C.ar      1 <0>         0.1149
     19 C13        -3.1132    2.0021    1.0896 C.ar      1 <0>        -0.1248
     20 F1         -3.7343    4.1270    1.9301 F         1 <0>        -0.1062
     21 F2         -3.3128    5.2458   -0.5314 F         1 <0>        -0.1054
     22 F3         -2.4715    3.6885   -2.6183 F         1 <0>        -0.1062
     23 C14        -1.9892   -3.3288   -1.3273 C.ar      1 <0>        -0.1188
     24 C15        -2.2464   -2.3250   -2.2412 C.ar      1 <0>        -0.0732
     25 C16        -2.2440   -2.6040   -3.5952 C.ar      1 <0>        -0.1514
     26 C17        -1.9840   -3.8878   -4.0385 C.ar      1 <0>        -0.0720
     27 C18        -1.7258   -4.8947   -3.1290 C.ar      1 <0>        -0.2035
     28 C19        -1.7224   -4.6161   -1.7697 C.ar      1 <0>         0.1438
     29 O3         -1.4631   -5.6039   -0.8730 O.3       1 <0>        -0.3139
     30 C20        -1.1969   -6.9052   -1.4002 C.3       1 <0>         0.0260
     31 H2          0.8160    1.9717    1.1120 H         1 <0>         0.1050
     32 H3         -0.4555    1.9417   -0.1332 H         1 <0>         0.0774
     33 H4         -0.8939    1.8400    1.5889 H         1 <0>         0.0805
     34 H5         -4.1478   -3.0506    0.0744 H         1 <0>         0.1266
     35 H6         -3.4759   -2.5550    1.6422 H         1 <0>         0.1214
     36 H7         -2.1342    1.1667   -2.0391 H         1 <0>         0.1611
     37 H8         -3.2839    1.5600    2.0601 H         1 <0>         0.1625
     38 H9         -2.4498   -1.3215   -1.8974 H         1 <0>         0.1151
     39 H10        -2.4460   -1.8181   -4.3079 H         1 <0>         0.1245
     40 H11        -1.9830   -4.1034   -5.0968 H         1 <0>         0.1276
     41 H12        -1.5228   -5.8972   -3.4757 H         1 <0>         0.1321
     42 H13        -1.0068   -7.5975   -0.5801 H         1 <0>         0.1034
     43 H14        -2.0585   -7.2483   -1.9731 H         1 <0>         0.0572
     44 H15        -0.3226   -6.8622   -2.0496 H         1 <0>         0.0575
@<TRIPOS>BOND
     1    1    2 1
     2    1   31 1
     3    1   32 1
     4    1   33 1
     5    2    6 am
     6    2    3 1
     7    3   13 1
     8    3    4 2
     9    4    5 1
    10    4    8 1
    11    5    6 1
    12    6    7 2
    13    8    9 1
    14    8   10 1
    15    8   23 1
    16   10   11 1
    17   10   34 1
    18   10   35 1
    19   11   12 2
    20   11   13 am
    21   13   14 1
    22   14   19 ar
    23   14   15 ar
    24   15   16 ar
    25   15   36 1
    26   16   17 ar
    27   16   22 1
    28   17   18 ar
    29   17   21 1
    30   18   19 ar
    31   18   20 1
    32   19   37 1
    33   23   28 ar
    34   23   24 ar
    35   24   25 ar
    36   24   38 1
    37   25   26 ar
    38   25   39 1
    39   26   27 ar
    40   26   40 1
    41   27   28 ar
    42   27   41 1
    43   28   29 1
    44   29   30 1
    45   30   42 1
    46   30   43 1
    47   30   44 1
@<TRIPOS>MOLECULE
ZINC12309253
   43    45     0     0     0
SMALL
USER_CHARGES

@<TRIPOS>ATOM
      1 C1          0.6162    1.3920    0.2462 C.3       1 <0>        -0.1469
      2 C2          0.5149   -0.1334    0.1847 C.3       1 <0>        -0.5653
      3 C3          1.2483   -0.7419    1.3817 C.3       1 <0>        -0.1475
      4 S1         -1.2303   -0.6259    0.2307 S.o2      1 <0>         2.4894
      5 O1         -1.8206   -0.2220    1.4586 O.2       1 <0>        -0.9285
      6 O2         -1.8570   -0.3236   -1.0083 O.2       1 <0>        -0.9322
      7 C4         -1.2024   -2.3862    0.3029 C.ar      1 <0>        -0.6335
      8 C5         -1.2034   -3.1237   -0.8676 C.ar      1 <0>        -0.0307
      9 C6         -1.1816   -4.5024   -0.8177 C.ar      1 <0>        -0.0837
     10 C7         -1.1584   -5.1524    0.4162 C.ar      1 <0>        -0.1081
     11 C8         -1.1575   -4.4033    1.5927 C.ar      1 <0>        -0.0953
     12 C9         -1.1738   -3.0250    1.5297 C.ar      1 <0>        -0.0292
     13 C10        -1.1354   -6.6322    0.4768 C.2       1 <0>         0.5505
     14 O3         -1.1366   -7.2844   -0.5528 O.2       1 <0>        -0.4715
     15 N1         -1.1132   -7.2523    1.6607 N.2       1 <0>        -0.5761
     16 C11        -2.2415   -7.4263    2.3409 C.2       1 <0>         0.3756
     17 N2         -3.5106   -7.1796    1.9255 N.pl3     1 <0>        -0.5471
     18 C12        -4.5721   -7.4230    2.7782 C.ar      1 <0>         0.1235
     19 C13        -5.9443   -7.2412    2.5570 C.ar      1 <0>        -0.0892
     20 C14        -6.8587   -7.5428    3.5392 C.ar      1 <0>        -0.1038
     21 C15        -6.4528   -8.0333    4.7714 C.ar      1 <0>         0.0995
     22 C16        -5.1017   -8.2221    5.0141 C.ar      1 <0>        -0.0646
     23 C17        -4.1884   -7.9204    4.0317 C.ar      1 <0>        -0.1571
     24 S2         -2.4212   -8.0085    3.9073 S.3       1 <0>         0.2279
     25 F1         -7.3649   -8.3234    5.7249 F         1 <0>        -0.1242
     26 C18        -3.7546   -6.6568    0.5789 C.3       1 <0>         0.0363
     27 H1          1.6649    1.6879    0.2185 H         1 <0>         0.0879
     28 H2          0.0938    1.8255   -0.6066 H         1 <0>         0.0739
     29 H3          0.1621    1.7493    1.1704 H         1 <0>         0.0772
     30 H4          0.9690   -0.4907   -0.7395 H         1 <0>         0.1414
     31 H5          0.7942   -0.3845    2.3060 H         1 <0>         0.0786
     32 H6          1.1761   -1.8286    1.3379 H         1 <0>         0.0706
     33 H7          2.2970   -0.4459    1.3541 H         1 <0>         0.0838
     34 H8         -1.2217   -2.6193   -1.8224 H         1 <0>         0.1519
     35 H9         -1.1827   -5.0771   -1.7321 H         1 <0>         0.1482
     36 H10        -1.1400   -4.9009    2.5511 H         1 <0>         0.1388
     37 H11        -1.1683   -2.4438    2.4399 H         1 <0>         0.1512
     38 H12        -6.2869   -6.8603    1.6063 H         1 <0>         0.1434
     39 H13        -7.9113   -7.3948    3.3477 H         1 <0>         0.1529
     40 H14        -4.7685   -8.6029    5.9682 H         1 <0>         0.1568
     41 H15        -3.4180   -7.3843   -0.1598 H         1 <0>         0.0891
     42 H16        -4.8211   -6.4732    0.4481 H         1 <0>         0.1016
     43 H17        -3.2064   -5.7241    0.4463 H         1 <0>         0.0847
@<TRIPOS>BOND
     1    1    2 1
     2    1   27 1
     3    1   28 1
     4    1   29 1
     5    2    3 1
     6    2    4 1
     7    2   30 1
     8    3   31 1
     9    3   32 1
    10    3   33 1
    11    4    5 2
    12    4    6 2
    13    4    7 1
    14    7   12 ar
    15    7    8 ar
    16    8    9 ar
    17    8   34 1
    18    9   10 ar
    19    9   35 1
    20   10   11 ar
    21   10   13 1
    22   11   12 ar
    23   11   36 1
    24   12   37 1
    25   13   14 2
    26   13   15 1
    27   15   16 2
    28   16   24 1
    29   16   17 1
    30   17   18 1
    31   17   26 1
    32   18   23 ar
    33   18   19 ar
    34   19   20 ar
    35   19   38 1
    36   20   21 ar
    37   20   39 1
    38   21   22 ar
    39   21   25 1
    40   22   23 ar
    41   22   40 1
    42   23   24 1
    43   26   41 1
    44   26   42 1
    45   26   43 1
@<TRIPOS>MOLECULE
ZINC01109944
   42    46     0     0     0
SMALL
USER_CHARGES
1-(5-phenyl-4,5-dihydropyrazol-1-yl)-2-BLAHylsulfanyl-ethanone
@<TRIPOS>ATOM
      1 C1          4.7260    0.3341    3.4736 C.ar      1 <0>        -0.1129
      2 C2          5.2816    0.6785    2.2555 C.ar      1 <0>        -0.1160
      3 C3          4.4870    0.7394    1.1260 C.ar      1 <0>        -0.0988
      4 C4          3.1370    0.4560    1.2145 C.ar      1 <0>        -0.0936
      5 C5          2.5804    0.1167    2.4335 C.ar      1 <0>        -0.1034
      6 C6          3.3760    0.0507    3.5621 C.ar      1 <0>        -0.1168
      7 C7          2.2707    0.5228   -0.0168 C.3       1 <0>         0.1501
      8 H1          2.8801    0.4841   -0.9197 H         1 <0>         0.1044
      9 C8          1.4007    1.7961   -0.0017 C.3       1 <0>        -0.1404
     10 C9         -0.0151    1.2655    0.0090 C.2       1 <0>         0.0919
     11 N1          0.0021   -0.0041    0.0020 N.2       1 <0>        -0.2501
     12 N2          1.2778   -0.5644   -0.0132 N.am      1 <0>        -0.4663
     13 C10         1.5566   -1.8829   -0.0229 C.2       1 <0>         0.5780
     14 O1          2.7098   -2.2589   -0.0364 O.2       1 <0>        -0.4963
     15 C11         0.4357   -2.8902   -0.0171 C.3       1 <0>        -0.1350
     16 S1          1.1290   -4.5664   -0.0328 S.3       1 <0>         0.0835
     17 C12        -0.2879   -5.6138   -0.0242 C.2       1 <0>         0.2114
     18 N3         -1.5323   -5.2122   -0.0102 N.2       1 <0>        -0.2912
     19 N4         -2.3544   -6.3478   -0.0078 N.2       1 <0>        -0.2532
     20 C13        -1.5804   -7.3915   -0.0204 C.2       1 <0>         0.1969
     21 N5         -0.2680   -6.9999   -0.0373 N.pl3     1 <0>        -0.4556
     22 C14         0.7186   -7.9981   -0.0461 C.ar      1 <0>         0.0932
     23 C15         2.1085   -7.7988   -0.0587 C.ar      1 <0>        -0.0904
     24 C16         2.9726   -8.8683   -0.0723 C.ar      1 <0>        -0.0868
     25 C17         2.5029  -10.1708   -0.0749 C.ar      1 <0>        -0.0939
     26 C18         1.1374  -10.3954   -0.0633 C.ar      1 <0>        -0.0487
     27 C19         0.2744   -9.3240   -0.0487 C.ar      1 <0>        -0.1273
     28 S2         -1.4947   -9.1663   -0.0305 S.3       1 <0>         0.1804
     29 H2          5.3467    0.2869    4.3562 H         1 <0>         0.1243
     30 H3          6.3363    0.9003    2.1865 H         1 <0>         0.1258
     31 H4          4.9210    1.0088    0.1744 H         1 <0>         0.1238
     32 H5          1.5248   -0.1005    2.5035 H         1 <0>         0.1139
     33 H6          2.9419   -0.2180    4.5138 H         1 <0>         0.1233
     34 H7          1.5794    2.3924   -0.8964 H         1 <0>         0.1117
     35 H8          1.5965    2.3828    0.8959 H         1 <0>         0.1104
     36 H9         -0.9069    1.8748    0.0167 H         1 <0>         0.2091
     37 H10        -0.1691   -2.7556    0.8797 H         1 <0>         0.1329
     38 H11        -0.1868   -2.7462   -0.9001 H         1 <0>         0.1337
     39 H12         2.5035   -6.7936   -0.0574 H         1 <0>         0.1359
     40 H13         4.0375   -8.6889   -0.0814 H         1 <0>         0.1443
     41 H14         3.1935  -11.0011   -0.0858 H         1 <0>         0.1488
     42 H15         0.7521  -11.4044   -0.0644 H         1 <0>         0.1492
@<TRIPOS>BOND
     1    1    6 ar
     2    1    2 ar
     3    1   29 1
     4    2    3 ar
     5    2   30 1
     6    3    4 ar
     7    3   31 1
     8    4    5 ar
     9    4    7 1
    10    5    6 ar
    11    5   32 1
    12    6   33 1
    13    7    8 1
    14    7   12 1
    15    7    9 1
    16    9   10 1
    17    9   34 1
    18    9   35 1
    19   10   11 2
    20   10   36 1
    21   11   12 1
    22   12   13 am
    23   13   14 2
    24   13   15 1
    25   15   16 1
    26   15   37 1
    27   15   38 1
    28   16   17 1
    29   17   21 1
    30   17   18 2
    31   18   19 1
    32   19   20 2
    33   20   28 1
    34   20   21 1
    35   21   22 1
    36   22   27 ar
    37   22   23 ar
    38   23   24 ar
    39   23   39 1
    40   24   25 ar
    41   24   40 1
    42   25   26 ar
    43   25   41 1
    44   26   27 ar
    45   26   42 1
    46   27   28 1
@<TRIPOS>MOLECULE
ZINC13951134
   49    52     0     0     0
SMALL
USER_CHARGES
(NZ)-N-(4,6-dimethyl-3-prop-2-ynyl-1,3-benzothiazol-2-ylidene)-3-(2,5-dioxopyrrolidin-1-yl)benzamide
@<TRIPOS>ATOM
      1 C1          5.3090    3.1319   -5.0016 C.3       1 <0>        -0.1135
      2 C2          4.3706    2.1181   -4.3995 C.ar      1 <0>        -0.0761
      3 C3          4.8647    0.9497   -3.8438 C.ar      1 <0>        -0.0844
      4 C4          4.0246    0.0131   -3.2899 C.ar      1 <0>        -0.0675
      5 C5          2.6357    0.2164   -3.2713 C.ar      1 <0>         0.1129
      6 C6          2.1645    1.4082   -3.8410 C.ar      1 <0>        -0.1757
      7 C7          3.0055    2.3441   -4.3950 C.ar      1 <0>        -0.0462
      8 S1          0.4060    1.2943   -3.6275 S.3       1 <0>         0.1539
      9 C8          0.3465   -0.2457   -2.8325 C.2       1 <0>         0.4279
     10 N1         -0.7203   -0.9081   -2.3980 N.2       1 <0>        -0.5955
     11 C9         -1.9411   -0.3873   -2.5572 C.2       1 <0>         0.5373
     12 O1         -2.0756    0.6951   -3.1009 O.2       1 <0>        -0.5220
     13 C10        -3.1304   -1.1258   -2.0728 C.ar      1 <0>        -0.1043
     14 C11        -2.9793   -2.3678   -1.4553 C.ar      1 <0>        -0.0438
     15 C12        -4.0883   -3.0516   -1.0006 C.ar      1 <0>        -0.1236
     16 C13        -5.3519   -2.5150   -1.1647 C.ar      1 <0>        -0.0695
     17 C14        -5.5125   -1.2815   -1.7825 C.ar      1 <0>         0.0933
     18 C15        -4.4041   -0.5848   -2.2377 C.ar      1 <0>        -0.0420
     19 N2         -6.7961   -0.7411   -1.9462 N.am      1 <0>        -0.5330
     20 C16        -7.3751    0.0417   -1.0274 C.2       1 <0>         0.5252
     21 O2         -6.8784    0.3711    0.0282 O.2       1 <0>        -0.4681
     22 C17        -8.7465    0.4531   -1.5169 C.3       1 <0>        -0.1538
     23 C18        -8.8648   -0.2432   -2.8880 C.3       1 <0>        -0.1539
     24 C19        -7.5456   -0.9702   -3.0316 C.2       1 <0>         0.5251
     25 O3         -7.2192   -1.6523   -3.9791 O.2       1 <0>        -0.4681
     26 N3          1.6544   -0.6122   -2.7598 N.pl3     1 <0>        -0.4927
     27 C20         2.0236   -1.8869   -2.1392 C.3       1 <0>         0.1946
     28 C21         2.3325   -1.6687   -0.7166 C.1       1 <0>        -0.2227
     29 C22         2.5788   -1.4947    0.4180 C.1       1 <0>        -0.1469
     30 C23         4.6013   -1.2455   -2.6947 C.3       1 <0>        -0.1445
     31 H1          5.6156    3.8436   -4.2349 H         1 <0>         0.0766
     32 H2          6.1880    2.6233   -5.3975 H         1 <0>         0.0723
     33 H3          4.8022    3.6623   -5.8078 H         1 <0>         0.0722
     34 H4          5.9298    0.7710   -3.8456 H         1 <0>         0.1382
     35 H5          2.6032    3.2497   -4.8244 H         1 <0>         0.1404
     36 H6         -1.9941   -2.7922   -1.3298 H         1 <0>         0.1458
     37 H7         -3.9692   -4.0110   -0.5192 H         1 <0>         0.1402
     38 H8         -6.2168   -3.0566   -0.8109 H         1 <0>         0.1312
     39 H9         -4.5271    0.3745   -2.7184 H         1 <0>         0.1382
     40 H10        -8.8086    1.5354   -1.6297 H         1 <0>         0.1255
     41 H11        -9.5190    0.0945   -0.8366 H         1 <0>         0.1249
     42 H12        -8.9858    0.4927   -3.6828 H         1 <0>         0.1252
     43 H13        -9.6947   -0.9500   -2.8916 H         1 <0>         0.1252
     44 H14         1.1936   -2.5879   -2.2274 H         1 <0>         0.1252
     45 H15         2.8997   -2.2958   -2.6426 H         1 <0>         0.1291
     46 H16         2.7991   -1.3391    1.4328 H         1 <0>         0.2236
     47 H17         4.5335   -2.0552   -3.4213 H         1 <0>         0.0789
     48 H18         5.6462   -1.0783   -2.4334 H         1 <0>         0.0780
     49 H19         4.0412   -1.5135   -1.7988 H         1 <0>         0.0868
@<TRIPOS>BOND
     1    1    2 1
     2    1   31 1
     3    1   32 1
     4    1   33 1
     5    2    7 ar
     6    2    3 ar
     7    3    4 ar
     8    3   34 1
     9    4    5 ar
    10    4   30 1
    11    5   26 1
    12    5    6 ar
    13    6    7 ar
    14    6    8 1
    15    7   35 1
    16    8    9 1
    17    9   10 2
    18    9   26 1
    19   10   11 1
    20   11   12 2
    21   11   13 1
    22   13   18 ar
    23   13   14 ar
    24   14   15 ar
    25   14   36 1
    26   15   16 ar
    27   15   37 1
    28   16   17 ar
    29   16   38 1
    30   17   18 ar
    31   17   19 1
    32   18   39 1
    33   19   24 am
    34   19   20 am
    35   20   21 2
    36   20   22 1
    37   22   23 1
    38   22   40 1
    39   22   41 1
    40   23   24 1
    41   23   42 1
    42   23   43 1
    43   24   25 2
    44   26   27 1
    45   27   28 1
    46   27   44 1
    47   27   45 1
    48   28   29 3
    49   29   46 1
    50   30   47 1
    51   30   48 1
    52   30   49 1
@<TRIPOS>MOLECULE
ZINC39589859
   53    57     0     0     0
SMALL
USER_CHARGES

@<TRIPOS>ATOM
      1 C1         -0.0167    1.3787    0.0096 C.ar      1 <0>        -0.1395
      2 C2          1.1696    2.0896    0.0021 C.ar      1 <0>        -0.0988
      3 C3          2.3774    1.4202   -0.0134 C.ar      1 <0>        -0.1308
      4 C4          2.3998    0.0312   -0.0211 C.ar      1 <0>         0.1765
      5 C5          1.2063   -0.6798   -0.0130 C.ar      1 <0>        -0.1508
      6 C6          0.0021   -0.0041    0.0020 C.ar      1 <0>        -0.0947
      7 N1          3.6216   -0.6502   -0.0373 N.am      1 <0>        -0.3836
      8 C7          3.7550   -1.9945   -0.0512 C.2       1 <0>         0.5511
      9 O1          2.8571   -2.8210   -0.0519 O.2       1 <0>        -0.5143
     10 C8          5.1902   -2.2581   -0.0656 C.2       1 <0>        -0.3633
     11 C9          5.9799   -3.3884   -0.0911 C.2       1 <0>         0.3126
     12 N2          7.3150   -3.2480   -0.0776 N.pl3     1 <0>        -0.4815
     13 C10         7.8821   -1.9915   -0.0890 C.2       1 <0>         0.3742
     14 N3          7.1904   -0.8830   -0.0771 N.2       1 <0>        -0.4684
     15 C11         5.8344   -0.9277   -0.0602 C.2       1 <0>         0.3186
     16 N4          4.8769   -0.0368   -0.0474 N.2       1 <0>        -0.2620
     17 S1          9.6398   -1.8736   -0.1208 S.3       1 <0>         0.0353
     18 C12         9.9599   -0.0881   -0.1282 C.3       1 <0>        -0.1336
     19 H1          9.4601    0.3769    0.7215 H         1 <0>         0.1390
     20 C13        11.4685    0.1647   -0.0394 C.3       1 <0>        -0.0972
     21 C14        11.7424    1.6623   -0.1878 C.3       1 <0>        -0.1190
     22 C15        11.3071    2.1340   -1.5762 C.3       1 <0>        -0.1179
     23 C16         9.7924    1.9552   -1.7228 C.3       1 <0>        -0.1587
     24 C17         9.4420    0.5156   -1.4149 C.2       1 <0>         0.3713
     25 O2          8.7705   -0.1360   -2.1784 O.2       1 <0>        -0.4277
     26 C18         8.2535   -4.3777   -0.0334 C.3       1 <0>         0.0841
     27 C19         7.6851   -5.6188   -0.7167 C.3       1 <0>        -0.1445
     28 C20         6.9687   -6.4724    0.3360 C.3       1 <0>        -0.1285
     29 C21         5.8359   -5.6550    0.9510 C.3       1 <0>        -0.1210
     30 C22         5.2947   -4.7259   -0.1396 C.3       1 <0>        -0.1135
     31 H2         -0.9598    1.9047    0.0260 H         1 <0>         0.1248
     32 H3          1.1514    3.1694    0.0080 H         1 <0>         0.1283
     33 H4          3.3034    1.9759   -0.0200 H         1 <0>         0.1341
     34 H5          1.2203   -1.7597   -0.0193 H         1 <0>         0.1535
     35 H6         -0.9261   -0.5561    0.0079 H         1 <0>         0.1292
     36 H7         11.8384   -0.1785    0.9268 H         1 <0>         0.0893
     37 H8         11.9757   -0.3784   -0.8368 H         1 <0>         0.0801
     38 H9         11.1848    2.2096    0.5722 H         1 <0>         0.0753
     39 H10        12.8084    1.8501   -0.0590 H         1 <0>         0.0829
     40 H11        11.5626    3.1864   -1.6992 H         1 <0>         0.0817
     41 H12        11.8181    1.5443   -2.3373 H         1 <0>         0.0705
     42 H13         9.2767    2.6123   -1.0225 H         1 <0>         0.1029
     43 H14         9.4925    2.1952   -2.7429 H         1 <0>         0.0943
     44 H15         9.1785   -4.0900   -0.5332 H         1 <0>         0.1075
     45 H16         8.4736   -4.6153    1.0073 H         1 <0>         0.1015
     46 H17         6.9765   -5.3191   -1.4888 H         1 <0>         0.0860
     47 H18         8.4959   -6.1938   -1.1640 H         1 <0>         0.0991
     48 H19         6.5594   -7.3657   -0.1357 H         1 <0>         0.0798
     49 H20         7.6751   -6.7603    1.1145 H         1 <0>         0.0764
     50 H21         5.0448   -6.3202    1.2968 H         1 <0>         0.0894
     51 H22         6.2157   -5.0650    1.7851 H         1 <0>         0.0682
     52 H23         4.2239   -4.5858    0.0078 H         1 <0>         0.1211
     53 H24         5.4651   -5.1809   -1.1153 H         1 <0>         0.1107
@<TRIPOS>BOND
     1    1    6 ar
     2    1    2 ar
     3    1   31 1
     4    2    3 ar
     5    2   32 1
     6    3    4 ar
     7    3   33 1
     8    4    5 ar
     9    4    7 1
    10    5    6 ar
    11    5   34 1
    12    6   35 1
    13    7   16 1
    14    7    8 am
    15    8    9 2
    16    8   10 1
    17   10   15 1
    18   10   11 2
    19   11   30 1
    20   11   12 1
    21   12   13 1
    22   12   26 1
    23   13   14 2
    24   13   17 1
    25   14   15 1
    26   15   16 2
    27   17   18 1
    28   18   19 1
    29   18   24 1
    30   18   20 1
    31   20   21 1
    32   20   36 1
    33   20   37 1
    34   21   22 1
    35   21   38 1
    36   21   39 1
    37   22   23 1
    38   22   40 1
    39   22   41 1
    40   23   24 1
    41   23   42 1
    42   23   43 1
    43   24   25 2
    44   26   27 1
    45   26   44 1
    46   26   45 1
    47   27   28 1
    48   27   46 1
    49   27   47 1
    50   28   29 1
    51   28   48 1
    52   28   49 1
    53   29   30 1
    54   29   50 1
    55   29   51 1
    56   30   52 1
    57   30   53 1
@<TRIPOS>MOLECULE
ZINC48558813
   34    35     0     0     0
SMALL
USER_CHARGES

@<TRIPOS>ATOM
      1 C1         -0.0184    1.5028    0.0103 C.3       1 <0>        -0.0896
      2 C2          0.0021   -0.0041    0.0020 C.2       1 <0>         0.1163
      3 C3          0.0080   -0.8237   -1.1409 C.2       1 <0>        -0.2813
      4 C4          0.0273   -2.1079   -0.7353 C.2       1 <0>         0.0927
      5 O1          0.0335   -2.1190    0.6064 O.3       1 <0>        -0.0803
      6 N1          0.0230   -0.7748    1.0524 N.2       1 <0>        -0.3196
      7 C5          0.0393   -3.3197   -1.6311 C.3       1 <0>        -0.0934
      8 C6         -0.0053   -0.3478   -2.5707 C.3       1 <0>         0.2237
      9 N2          1.3714   -0.1745   -3.0406 N.pl3     1 <0>        -0.6713
     10 C7          2.0746   -1.2915   -3.6762 C.3       1 <0>         0.1115
     11 C8          2.0137    1.0560   -2.8824 C.ar      1 <0>         0.2631
     12 C9          2.7492    1.3146   -1.7325 C.ar      1 <0>        -0.1233
     13 C10         3.3829    2.5318   -1.5792 C.ar      1 <0>        -0.0299
     14 C11         3.2859    3.4934   -2.5692 C.ar      1 <0>        -0.1154
     15 C12         2.5544    3.2390   -3.7151 C.ar      1 <0>        -0.0173
     16 C13         1.9230    2.0212   -3.8770 C.ar      1 <0>        -0.0601
     17 N3          1.1454    1.7475   -5.1062 N.pl3     1 <0>         0.0371
     18 O2          1.0669    2.5881   -5.9715 O.2       1 <0>        -0.1738
     19 O3          0.5889    0.6832   -5.2450 O.3       1 <0>        -0.1236
     20 I1          4.2485    5.3390   -2.3317 I         1 <0>         0.0000
     21 H1          1.0042    1.8801    0.0026 H         1 <0>         0.0859
     22 H2         -0.5455    1.8639   -0.8728 H         1 <0>         0.0825
     23 H3         -0.5286    1.8543    0.9071 H         1 <0>         0.0853
     24 H4          1.0697   -3.5980   -1.8521 H         1 <0>         0.0957
     25 H5         -0.4610   -4.1477   -1.1290 H         1 <0>         0.0888
     26 H6         -0.4822   -3.0898   -2.5603 H         1 <0>         0.0982
     27 H7         -0.5120   -1.0846   -3.1941 H         1 <0>         0.0936
     28 H8         -0.5327    0.6041   -2.6319 H         1 <0>         0.0712
     29 H9          1.8978   -1.2673   -4.7516 H         1 <0>         0.0529
     30 H10         3.1436   -1.2057   -3.4817 H         1 <0>         0.0530
     31 H11         1.7054   -2.2325   -3.2684 H         1 <0>         0.0679
     32 H12         2.8250    0.5645   -0.9592 H         1 <0>         0.1509
     33 H13         3.9545    2.7335   -0.6853 H         1 <0>         0.1495
     34 H14         2.4802    3.9918   -4.4860 H         1 <0>         0.1592
@<TRIPOS>BOND
     1    1    2 1
     2    1   21 1
     3    1   22 1
     4    1   23 1
     5    2    6 2
     6    2    3 1
     7    3    4 2
     8    3    8 1
     9    4    5 1
    10    4    7 1
    11    5    6 1
    12    7   24 1
    13    7   25 1
    14    7   26 1
    15    8    9 1
    16    8   27 1
    17    8   28 1
    18    9   10 1
    19    9   11 1
    20   10   29 1
    21   10   30 1
    22   10   31 1
    23   11   16 ar
    24   11   12 ar
    25   12   13 ar
    26   12   32 1
    27   13   14 ar
    28   13   33 1
    29   14   15 ar
    30   14   20 1
    31   15   16 ar
    32   15   34 1
    33   16   17 1
    34   17   18 2
    35   17   19 1
@<TRIPOS>MOLECULE
ZINC62075818
   50    53     0     0     0
SMALL
USER_CHARGES

@<TRIPOS>ATOM
      1 C1         -1.2807    1.2212   -0.9656 C.3       1 <0>        -0.1531
      2 C2         -0.8757   -0.1333   -1.5505 C.3       1 <0>         0.0494
      3 O1         -0.2101   -0.9049   -0.5487 O.3       1 <0>        -0.3057
      4 C3          0.2178   -2.1439   -0.9073 C.ar      1 <0>         0.1872
      5 C4          0.0066   -2.6053   -2.1987 C.ar      1 <0>        -0.2239
      6 C5          0.4430   -3.8648   -2.5609 C.ar      1 <0>         0.0549
      7 C6          1.0898   -4.6657   -1.6376 C.ar      1 <0>        -0.7100
      8 C7          1.3010   -4.2085   -0.3501 C.ar      1 <0>         0.0058
      9 C8          0.8715   -2.9472    0.0155 C.ar      1 <0>        -0.1366
     10 C9          1.1076   -2.4470    1.4173 C.3       1 <0>        -0.1056
     11 S1          1.6452   -6.2719   -2.1027 S.o2      1 <0>         2.6992
     12 O2          0.5137   -7.1287   -2.0335 O.2       1 <0>        -0.9510
     13 O3          2.4065   -6.1099   -3.2916 O.2       1 <0>        -0.9490
     14 N1          2.6987   -6.7837   -0.9321 N.pl3     1 <0>        -1.0008
     15 C10         4.1487   -6.5608   -1.0563 C.3       1 <0>         0.1176
     16 C11         4.5784   -5.6262    0.0733 C.3       1 <0>        -0.1007
     17 C12         4.0107   -6.0821    1.3920 C.ar      1 <0>        -0.0565
     18 C13         4.6275   -5.6230    2.5501 C.ar      1 <0>        -0.1007
     19 C14         4.1545   -5.9932    3.7948 C.ar      1 <0>         0.0389
     20 C15         3.0474   -6.8338    3.8885 C.ar      1 <0>         0.0351
     21 C16         2.4385   -7.2904    2.7346 C.ar      1 <0>        -0.0940
     22 C17         2.9220   -6.9198    1.4865 C.ar      1 <0>        -0.0899
     23 C18         2.2243   -7.4720    0.2732 C.3       1 <0>         0.1652
     24 O4          2.7734   -7.0486    5.2083 O.3       1 <0>        -0.3066
     25 C19         3.9678   -6.6665    5.9159 C.3       1 <0>         0.2132
     26 O5          4.5753   -5.6842    5.0561 O.3       1 <0>        -0.3076
     27 C20         0.2135   -4.3667   -3.9632 C.3       1 <0>        -0.1498
     28 H1         -1.9519    1.0662   -0.1208 H         1 <0>         0.0680
     29 H2         -0.3904    1.7527   -0.6294 H         1 <0>         0.0679
     30 H3         -1.7884    1.8098   -1.7297 H         1 <0>         0.0817
     31 H4         -1.7660   -0.6647   -1.8866 H         1 <0>         0.0666
     32 H5         -0.2045    0.0218   -2.3952 H         1 <0>         0.0665
     33 H6         -0.4988   -1.9803   -2.9200 H         1 <0>         0.1392
     34 H7          1.8061   -4.8361    0.3692 H         1 <0>         0.1405
     35 H8          0.2631   -2.7231    2.0486 H         1 <0>         0.0707
     36 H9          2.0192   -2.8941    1.8139 H         1 <0>         0.0671
     37 H10         1.2114   -1.3621    1.4032 H         1 <0>         0.0730
     38 H11         4.6767   -7.5105   -0.9702 H         1 <0>         0.0890
     39 H12         4.3700   -6.1011   -2.0196 H         1 <0>         0.1067
     40 H13         5.6665   -5.6160    0.1358 H         1 <0>         0.0961
     41 H14         4.2229   -4.6182   -0.1406 H         1 <0>         0.0862
     42 H15         5.4851   -4.9707    2.4765 H         1 <0>         0.1374
     43 H16         1.5794   -7.9412    2.8043 H         1 <0>         0.1408
     44 H17         1.1492   -7.3248    0.3753 H         1 <0>         0.1025
     45 H18         2.4374   -8.5377    0.1898 H         1 <0>         0.0970
     46 H19         3.7170   -6.2276    6.8815 H         1 <0>         0.1338
     47 H20         4.6281   -7.5243    6.0438 H         1 <0>         0.0867
     48 H21         1.1017   -4.1785   -4.5663 H         1 <0>         0.1020
     49 H22         0.0121   -5.4377   -3.9373 H         1 <0>         0.0686
     50 H23        -0.6393   -3.8471   -4.4001 H         1 <0>         0.0870
@<TRIPOS>BOND
     1    1    2 1
     2    1   28 1
     3    1   29 1
     4    1   30 1
     5    2    3 1
     6    2   31 1
     7    2   32 1
     8    3    4 1
     9    4    9 ar
    10    4    5 ar
    11    5    6 ar
    12    5   33 1
    13    6    7 ar
    14    6   27 1
    15    7    8 ar
    16    7   11 1
    17    8    9 ar
    18    8   34 1
    19    9   10 1
    20   10   35 1
    21   10   36 1
    22   10   37 1
    23   11   12 2
    24   11   13 2
    25   11   14 1
    26   14   23 1
    27   14   15 1
    28   15   16 1
    29   15   38 1
    30   15   39 1
    31   16   17 1
    32   16   40 1
    33   16   41 1
    34   17   22 ar
    35   17   18 ar
    36   18   19 ar
    37   18   42 1
    38   19   26 1
    39   19   20 ar
    40   20   21 ar
    41   20   24 1
    42   21   22 ar
    43   21   43 1
    44   22   23 1
    45   23   44 1
    46   23   45 1
    47   24   25 1
    48   25   26 1
    49   25   46 1
    50   25   47 1
    51   27   48 1
    52   27   49 1
    53   27   50 1
@<TRIPOS>MOLECULE
ZINC67430210
   44    46     0     0     0
SMALL
USER_CHARGES

@<TRIPOS>ATOM
      1 C1          0.2816    1.4990   -0.0139 C.3       1 <0>        -0.1218
      2 C2          0.2222   -0.0068   -0.0168 C.ar      1 <0>        -0.0867
      3 C3          1.0330   -0.7293    0.8418 C.ar      1 <0>        -0.0992
      4 C4          0.9859   -2.1065    0.8459 C.ar      1 <0>        -0.0562
      5 C5          0.1138   -2.7771   -0.0220 C.ar      1 <0>        -0.0899
      6 C6         -0.7040   -2.0402   -0.8877 C.ar      1 <0>        -0.1089
      7 C7         -0.6482   -0.6607   -0.8754 C.ar      1 <0>         0.0863
      8 F1         -1.4393    0.0534   -1.7057 F         1 <0>        -0.1333
      9 C8          0.0581   -4.2428   -0.0240 C.2       1 <0>         0.0887
     10 C9          0.1771   -4.9382    1.1590 C.2       1 <0>        -0.0950
     11 C10         0.1875   -4.3819    2.5260 C.2       1 <0>         0.4778
     12 O1          0.0926   -3.2130    2.8487 O.2       1 <0>        -0.4040
     13 O2          0.3241   -5.4495    3.3418 O.3       1 <0>        -0.2886
     14 C11         0.3935   -6.5631    2.5872 C.2       1 <0>         0.3401
     15 N1          0.3044   -6.2875    1.3155 N.2       1 <0>        -0.4648
     16 C12         0.5458   -7.9270    3.1323 C.ar      1 <0>        -0.0617
     17 C13         0.6152   -9.0236    2.2698 C.ar      1 <0>        -0.0052
     18 C14         0.7579  -10.2945    2.7857 C.ar      1 <0>        -0.1395
     19 C15         0.8321  -10.4849    4.1546 C.ar      1 <0>         0.0087
     20 C16         0.7641   -9.4033    5.0147 C.ar      1 <0>        -0.6835
     21 C17         0.6271   -8.1259    4.5121 C.ar      1 <0>         0.0223
     22 S1          0.8595   -9.6574    6.7556 S.o2      1 <0>         2.6910
     23 O3          0.2242   -8.5415    7.3643 O.2       1 <0>        -0.9459
     24 O4          0.4431  -10.9948    6.9943 O.2       1 <0>        -0.9474
     25 N2          2.4596   -9.5779    7.1751 N.pl3     1 <0>        -1.0032
     26 C18         3.0558   -8.2931    7.5491 C.3       1 <0>         0.0896
     27 C19         3.2788  -10.7924    7.1721 C.3       1 <0>         0.0824
     28 H1         -0.4359    1.8895    0.7078 H         1 <0>         0.0807
     29 H2          1.2856    1.8225    0.2605 H         1 <0>         0.0772
     30 H3          0.0380    1.8742   -1.0079 H         1 <0>         0.0742
     31 H4          1.7049   -0.2118    1.5105 H         1 <0>         0.1396
     32 H5          1.6199   -2.6677    1.5162 H         1 <0>         0.1299
     33 H6         -1.3788   -2.5492   -1.5601 H         1 <0>         0.1446
     34 H7         -0.0762   -4.7768   -0.9531 H         1 <0>         0.1626
     35 H8          0.5567   -8.8765    1.2014 H         1 <0>         0.1523
     36 H9          0.8117  -11.1433    2.1201 H         1 <0>         0.1486
     37 H10         0.9432  -11.4825    4.5532 H         1 <0>         0.1497
     38 H11         0.5787   -7.2820    5.1844 H         1 <0>         0.1525
     39 H12         2.9546   -8.1448    8.6242 H         1 <0>         0.0652
     40 H13         4.1120   -8.2905    7.2798 H         1 <0>         0.0769
     41 H14         2.5444   -7.4879    7.0216 H         1 <0>         0.0725
     42 H15         2.6672  -11.6425    6.8696 H         1 <0>         0.0866
     43 H16         4.1050  -10.6717    6.4715 H         1 <0>         0.0644
     44 H17         3.6736  -10.9668    8.1730 H         1 <0>         0.0705
@<TRIPOS>BOND
     1    1    2 1
     2    1   28 1
     3    1   29 1
     4    1   30 1
     5    2    7 ar
     6    2    3 ar
     7    3    4 ar
     8    3   31 1
     9    4    5 ar
    10    4   32 1
    11    5    6 ar
    12    5    9 1
    13    6    7 ar
    14    6   33 1
    15    7    8 1
    16    9   10 2
    17    9   34 1
    18   10   15 1
    19   10   11 1
    20   11   12 2
    21   11   13 1
    22   13   14 1
    23   14   15 2
    24   14   16 1
    25   16   21 ar
    26   16   17 ar
    27   17   18 ar
    28   17   35 1
    29   18   19 ar
    30   18   36 1
    31   19   20 ar
    32   19   37 1
    33   20   21 ar
    34   20   22 1
    35   21   38 1
    36   22   23 2
    37   22   24 2
    38   22   25 1
    39   25   26 1
    40   25   27 1
    41   26   39 1
    42   26   40 1
    43   26   41 1
    44   27   42 1
    45   27   43 1
    46   27   44 1
@<TRIPOS>MOLECULE
ZINC09122125
   43    46     0     0     0
SMALL
USER_CHARGES
2-[(5-bromo-2-oxo-indolin-3-ylidene)methyl]-3-(3-hydroxypropyl)quinazolin-4-one
@<TRIPOS>ATOM
      1 C1          0.2057    1.2727    1.6644 C.ar      1 <0>        -0.1304
      2 C2          1.4104    1.9637    1.6782 C.ar      1 <0>        -0.0805
      3 C3          2.5873    1.3360    1.3391 C.ar      1 <0>        -0.0912
      4 C4          2.5722   -0.0154    0.9756 C.ar      1 <0>         0.1479
      5 C5          1.3426   -0.7149    0.9630 C.ar      1 <0>        -0.1913
      6 C6          0.1645   -0.0592    1.3099 C.ar      1 <0>        -0.0472
      7 C7          1.3541   -2.1351    0.5775 C.2       1 <0>         0.5516
      8 O1          0.3285   -2.7898    0.5482 O.2       1 <0>        -0.5087
      9 N1          2.5483   -2.6857    0.2573 N.am      1 <0>        -0.5393
     10 C8          3.6932   -1.9298    0.2972 C.2       1 <0>         0.3810
     11 N2          3.7013   -0.6643    0.6381 N.2       1 <0>        -0.4341
     12 C9          4.9649   -2.5671   -0.0571 C.2       1 <0>        -0.0332
     13 C10         6.0959   -1.8159   -0.1662 C.2       1 <0>        -0.0652
     14 C11         7.4881   -2.2979   -0.3000 C.ar      1 <0>        -0.1256
     15 C12         8.0552   -3.5677   -0.3539 C.ar      1 <0>        -0.0182
     16 C13         9.4235   -3.7013   -0.4856 C.ar      1 <0>        -0.1233
     17 C14        10.2264   -2.5746   -0.5641 C.ar      1 <0>        -0.0376
     18 C15         9.6726   -1.3111   -0.5120 C.ar      1 <0>        -0.1389
     19 C16         8.2974   -1.1562   -0.3791 C.ar      1 <0>         0.1857
     20 N3          7.4993   -0.0192   -0.3032 N.am      1 <0>        -0.6607
     21 C17         6.1995   -0.3390   -0.1832 C.2       1 <0>         0.5444
     22 O2          5.2735    0.4450   -0.1003 O.2       1 <0>        -0.4158
     23 Br1        10.2020   -5.4230   -0.5583 Br        1 <0>        -0.0378
     24 C18         2.6191   -4.0956   -0.1345 C.3       1 <0>         0.0925
     25 C19         2.8421   -4.9596    1.1083 C.3       1 <0>        -0.1400
     26 C20         2.9161   -6.4321    0.6992 C.3       1 <0>         0.0806
     27 O3          3.1243   -7.2391    1.8600 O.3       1 <0>        -0.5722
     28 H1         -0.7078    1.7843    1.9295 H         1 <0>         0.1345
     29 H2          1.4237    3.0067    1.9582 H         1 <0>         0.1351
     30 H3          3.5180    1.8836    1.3536 H         1 <0>         0.1420
     31 H4         -0.7758   -0.5905    1.3017 H         1 <0>         0.1382
     32 H5          5.0050   -3.6321   -0.2316 H         1 <0>         0.1612
     33 H6          7.4281   -4.4448   -0.2929 H         1 <0>         0.1409
     34 H7         11.2957   -2.6860   -0.6675 H         1 <0>         0.1447
     35 H8         10.3092   -0.4409   -0.5742 H         1 <0>         0.1415
     36 H9          7.8377    0.8892   -0.3367 H         1 <0>         0.4218
     37 H10         1.6855   -4.3861   -0.6163 H         1 <0>         0.1056
     38 H11         3.4465   -4.2384   -0.8295 H         1 <0>         0.0968
     39 H12         3.7756   -4.6691    1.5901 H         1 <0>         0.0776
     40 H13         2.0147   -4.8168    1.8034 H         1 <0>         0.0810
     41 H14         1.9825   -6.7226    0.2174 H         1 <0>         0.0516
     42 H15         3.7435   -6.5749    0.0042 H         1 <0>         0.0505
     43 H16         3.1814   -8.1865    1.6752 H         1 <0>         0.3846
@<TRIPOS>BOND
     1    1    6 ar
     2    1    2 ar
     3    1   28 1
     4    2    3 ar
     5    2   29 1
     6    3    4 ar
     7    3   30 1
     8    4   11 1
     9    4    5 ar
    10    5    6 ar
    11    5    7 1
    12    6   31 1
    13    7    8 2
    14    7    9 am
    15    9   10 1
    16    9   24 1
    17   10   11 2
    18   10   12 1
    19   12   13 2
    20   12   32 1
    21   13   21 1
    22   13   14 1
    23   14   19 ar
    24   14   15 ar
    25   15   16 ar
    26   15   33 1
    27   16   17 ar
    28   16   23 1
    29   17   18 ar
    30   17   34 1
    31   18   19 ar
    32   18   35 1
    33   19   20 1
    34   20   21 am
    35   20   36 1
    36   21   22 2
    37   24   25 1
    38   24   37 1
    39   24   38 1
    40   25   26 1
    41   25   39 1
    42   25   40 1
    43   26   27 1
    44   26   41 1
    45   26   42 1
    46   27   43 1
@<TRIPOS>MOLECULE
ZINC19959329
   44    46     0     0     0
SMALL
USER_CHARGES
4-bromo-N-(5-phenethyl-4,6-dihydro-1H-1,3,5-triazin-2-yl)benzenesulfonamide
@<TRIPOS>ATOM
      1 C1         10.1606   -0.8946   -6.6561 C.ar      1 <0>        -0.1206
      2 C2          9.5795   -0.0146   -5.7623 C.ar      1 <0>        -0.1180
      3 C3          8.5558   -0.4423   -4.9378 C.ar      1 <0>        -0.1165
      4 C4          8.1134   -1.7501   -5.0067 C.ar      1 <0>        -0.0870
      5 C5          8.6982   -2.6316   -5.8965 C.ar      1 <0>        -0.1134
      6 C6          9.7182   -2.2024   -6.7250 C.ar      1 <0>        -0.1174
      7 C7          6.9976   -2.2165   -4.1075 C.3       1 <0>        -0.0812
      8 C8          5.6540   -1.9947   -4.8049 C.3       1 <0>         0.0680
      9 N1          4.5663   -2.4494   -3.9284 N.3       1 <0>        -0.5597
     10 C9          3.2811   -2.4746   -4.6507 C.3       1 <0>         0.2734
     11 N2          2.2724   -3.0327   -3.7361 N.pl3     1 <0>        -0.7025
     12 C10         2.2911   -2.6268   -2.4202 C.2       1 <0>         0.7350
     13 N3          3.2963   -1.9658   -1.9379 N.pl3     1 <0>        -0.7246
     14 C11         4.4622   -1.6000   -2.7352 C.3       1 <0>         0.2652
     15 N4          1.2233   -2.9225   -1.6062 N.2       1 <0>        -1.0280
     16 S1          1.2316   -2.4409   -0.0218 S.o2      1 <0>         2.6239
     17 O1          2.4873   -2.8333    0.5154 O.2       1 <0>        -1.0059
     18 O2         -0.0030   -2.8663    0.5385 O.2       1 <0>        -0.9389
     19 C12         1.2084   -0.6791   -0.0127 C.ar      1 <0>        -0.6738
     20 C13         0.0021   -0.0041    0.0020 C.ar      1 <0>        -0.0049
     21 C14        -0.0167    1.3780    0.0096 C.ar      1 <0>        -0.1044
     22 C15         1.1718    2.0856    0.0021 C.ar      1 <0>        -0.0458
     23 C16         2.3786    1.4097   -0.0126 C.ar      1 <0>        -0.1040
     24 C17         2.3964    0.0277   -0.0198 C.ar      1 <0>        -0.0424
     25 Br1         1.1469    3.9764    0.0125 Br        1 <0>        -0.0311
     26 H1         10.9599   -0.5603   -7.3008 H         1 <0>         0.1221
     27 H2          9.9252    1.0072   -5.7085 H         1 <0>         0.1223
     28 H3          8.1018    0.2452   -4.2395 H         1 <0>         0.1200
     29 H4          8.3556   -3.6546   -5.9472 H         1 <0>         0.1233
     30 H5         10.1719   -2.8899   -7.4236 H         1 <0>         0.1231
     31 H6          7.1254   -3.2871   -3.8898 H         1 <0>         0.0885
     32 H7          7.0214   -1.6458   -3.1674 H         1 <0>         0.0745
     33 H8          5.5262   -0.9241   -5.0226 H         1 <0>         0.0512
     34 H9          5.6302   -2.5654   -5.7450 H         1 <0>         0.0946
     35 H10         3.0073   -1.4514   -4.9477 H         1 <0>         0.0558
     36 H11         3.3771   -3.1036   -5.5480 H         1 <0>         0.1176
     37 H12         1.5304   -3.7538   -4.1096 H         1 <0>         0.4655
     38 H13         5.3651   -1.7214   -2.1188 H         1 <0>         0.1134
     39 H14         4.3660   -0.5478   -3.0413 H         1 <0>         0.0594
     40 H15        -0.9258   -0.5567    0.0079 H         1 <0>         0.1541
     41 H16        -0.9592    1.9053    0.0170 H         1 <0>         0.1464
     42 H17         3.3068    1.9618   -0.0178 H         1 <0>         0.1444
     43 H18         3.3386   -0.5001   -0.0305 H         1 <0>         0.1372
     44 H19         3.2436   -1.6795   -0.8771 H         1 <0>         0.4410
@<TRIPOS>BOND
     1    1    6 ar
     2    1    2 ar
     3    1   26 1
     4    2    3 ar
     5    2   27 1
     6    3    4 ar
     7    3   28 1
     8    4    5 ar
     9    4    7 1
    10    5    6 ar
    11    5   29 1
    12    6   30 1
    13    7    8 1
    14    7   31 1
    15    7   32 1
    16    8    9 1
    17    8   33 1
    18    8   34 1
    19    9   14 1
    20    9   10 1
    21   10   11 1
    22   10   35 1
    23   10   36 1
    24   11   12 1
    25   11   37 1
    26   12   13 1
    27   12   15 2
    28   13   14 1
    29   13   44 1
    30   14   38 1
    31   14   39 1
    32   15   16 1
    33   16   17 2
    34   16   18 2
    35   16   19 1
    36   19   24 ar
    37   19   20 ar
    38   20   21 ar
    39   20   40 1
    40   21   22 ar
    41   21   41 1
    42   22   23 ar
    43   22   25 1
    44   23   24 ar
    45   23   42 1
    46   24   43 1
@<TRIPOS>MOLECULE
ZINC35023438
   49    52     0     0     0
SMALL
USER_CHARGES

@<TRIPOS>ATOM
      1 C1          0.0124    1.4296    0.0083 C.ar      1 <0>        -0.1099
      2 C2          1.2036    2.1310    0.0033 C.ar      1 <0>        -0.1222
      3 C3          2.4065    1.4500   -0.0117 C.ar      1 <0>        -0.0985
      4 C4          2.4183    0.0678   -0.0211 C.ar      1 <0>        -0.1108
      5 C5          1.2270   -0.6336   -0.0152 C.ar      1 <0>        -0.0985
      6 C6          0.0241    0.0473   -0.0017 C.ar      1 <0>        -0.1221
      7 C7          3.7296   -0.6745   -0.0384 C.3       1 <0>         0.1689
      8 N1          4.1675   -0.9244    1.3371 N.pl3     1 <0>        -0.7159
      9 C8          5.3716   -1.6064    1.5779 C.2       1 <0>         0.0372
     10 C9          6.1563   -2.0425    0.5261 C.2       1 <0>         0.0646
     11 N2          7.2918   -2.6857    0.7682 N.2       1 <0>        -0.4469
     12 C10         7.7012   -2.9256    2.0061 C.2       1 <0>         0.3451
     13 C11         8.9242   -3.6180    2.2171 C.2       1 <0>        -0.1315
     14 C12         9.3434   -3.8634    3.5188 C.2       1 <0>        -0.0145
     15 C13         8.5544   -3.4247    4.5849 C.2       1 <0>        -0.1746
     16 C14         7.3938   -2.7674    4.3528 C.2       1 <0>         0.1182
     17 N3          6.9650   -2.5167    3.0847 N.am      1 <0>        -0.4229
     18 C15         5.8041   -1.8532    2.8932 C.2       1 <0>         0.4976
     19 O1          5.1389   -1.4781    3.8461 O.2       1 <0>        -0.5297
     20 C16         9.7350   -4.0690    1.0730 C.2       1 <0>         0.5641
     21 O2          9.3141   -3.9366   -0.0604 O.2       1 <0>        -0.4843
     22 N4         10.9432   -4.6283    1.2821 N.am      1 <0>        -0.7290
     23 C17        11.7972   -4.9744    0.1432 C.3       1 <0>         0.1664
     24 C18        13.0826   -5.5802    0.6450 C.ar      1 <0>        -0.1232
     25 C19        14.1667   -4.7684    0.9221 C.ar      1 <0>        -0.0698
     26 C20        15.3459   -5.3228    1.3827 C.ar      1 <0>        -0.1556
     27 C21        15.4411   -6.6918    1.5666 C.ar      1 <0>         0.1083
     28 C22        14.3547   -7.5039    1.2887 C.ar      1 <0>        -0.1555
     29 C23        13.1748   -6.9467    0.8332 C.ar      1 <0>        -0.0697
     30 F1         16.5935   -7.2349    2.0165 F         1 <0>        -0.1369
     31 H1         -0.9274    1.9616    0.0244 H         1 <0>         0.1242
     32 H2          1.1945    3.2109    0.0107 H         1 <0>         0.1250
     33 H3          3.3372    1.9980   -0.0163 H         1 <0>         0.1241
     34 H4          1.2362   -1.7135   -0.0230 H         1 <0>         0.1241
     35 H5         -0.9065   -0.5006    0.0025 H         1 <0>         0.1250
     36 H6          3.6026   -1.6245   -0.5575 H         1 <0>         0.0723
     37 H7          4.4794   -0.0755   -0.5552 H         1 <0>         0.0723
     38 H8          3.6258   -0.6190    2.0816 H         1 <0>         0.4087
     39 H9          5.8453   -1.8600   -0.4919 H         1 <0>         0.1678
     40 H10        10.2690   -4.3880    3.7044 H         1 <0>         0.1505
     41 H11         8.8719   -3.6113    5.6002 H         1 <0>         0.1635
     42 H12         6.7966   -2.4356    5.1892 H         1 <0>         0.1821
     43 H13        11.2473   -4.8018    2.1867 H         1 <0>         0.3981
     44 H14        11.2808   -5.6932   -0.4930 H         1 <0>         0.0826
     45 H15        12.0193   -4.0749   -0.4309 H         1 <0>         0.0815
     46 H16        14.0923   -3.7007    0.7783 H         1 <0>         0.1363
     47 H17        16.1928   -4.6885    1.5989 H         1 <0>         0.1386
     48 H18        14.4279   -8.5719    1.4315 H         1 <0>         0.1386
     49 H19        12.3258   -7.5794    0.6206 H         1 <0>         0.1365
@<TRIPOS>BOND
     1    1    6 ar
     2    1    2 ar
     3    1   31 1
     4    2    3 ar
     5    2   32 1
     6    3    4 ar
     7    3   33 1
     8    4    5 ar
     9    4    7 1
    10    5    6 ar
    11    5   34 1
    12    6   35 1
    13    7    8 1
    14    7   36 1
    15    7   37 1
    16    8    9 1
    17    8   38 1
    18    9   18 1
    19    9   10 2
    20   10   11 1
    21   10   39 1
    22   11   12 2
    23   12   17 1
    24   12   13 1
    25   13   14 2
    26   13   20 1
    27   14   15 1
    28   14   40 1
    29   15   16 2
    30   15   41 1
    31   16   17 1
    32   16   42 1
    33   17   18 am
    34   18   19 2
    35   20   21 2
    36   20   22 am
    37   22   23 1
    38   22   43 1
    39   23   24 1
    40   23   44 1
    41   23   45 1
    42   24   29 ar
    43   24   25 ar
    44   25   26 ar
    45   25   46 1
    46   26   27 ar
    47   26   47 1
    48   27   28 ar
    49   27   30 1
    50   28   29 ar
    51   28   48 1
    52   29   49 1
@<TRIPOS>MOLECULE
ZINC20519195
   53    57     0     0     0
SMALL
USER_CHARGES

@<TRIPOS>ATOM
      1 C1         -0.0225    1.8097    0.0120 C.3       1 <0>        -0.1201
      2 S1          0.0021   -0.0041    0.0020 S.3       1 <0>        -0.2654
      3 C2         -1.7518   -0.4668    0.0163 C.3       1 <0>        -0.0798
      4 C3         -1.8771   -1.9917    0.0093 C.3       1 <0>        -0.1032
      5 C4         -3.3564   -2.3820    0.0213 C.3       1 <0>         0.0875
      6 H1         -3.8824   -1.8973   -0.8012 H         1 <0>         0.1273
      7 C5         -3.5079   -3.9148   -0.0736 C.3       1 <0>        -0.1535
      8 H2         -3.6552   -4.2586   -1.0974 H         1 <0>         0.1484
      9 C6         -4.7068   -4.2560    0.8548 C.3       1 <0>        -0.1338
     10 H3         -5.5057   -4.7871    0.3372 H         1 <0>         0.1436
     11 C7         -4.0727   -5.0819    1.9518 C.2       1 <0>         0.5296
     12 O1         -4.6626   -5.5665    2.8935 O.2       1 <0>        -0.4532
     13 N1         -2.7597   -5.1950    1.7211 N.am      1 <0>        -0.5696
     14 C8         -2.3268   -4.5768    0.5984 C.2       1 <0>         0.5324
     15 O2         -1.1849   -4.5509    0.1923 O.2       1 <0>        -0.4445
     16 C9         -1.8601   -5.9351    2.6094 C.3       1 <0>         0.1222
     17 C10        -0.7287   -5.0109    3.1051 C.3       1 <0>        -0.1341
     18 C11         0.5192   -5.9275    3.1478 C.3       1 <0>        -0.1187
     19 C12         0.3341   -6.8156    1.8923 C.3       1 <0>        -0.1209
     20 C13        -1.1843   -7.0825    1.8383 C.3       1 <0>        -0.1299
     21 C14        -5.1618   -2.9007    1.4103 C.3       1 <0>         0.1290
     22 N2         -3.9779   -2.0139    1.3212 N.3       1 <0>        -0.6221
     23 C15        -5.6415   -3.0198    2.8288 C.ar      1 <0>        -0.1427
     24 C16        -5.0489   -3.4438    3.9977 C.ar      1 <0>        -0.0215
     25 C17        -5.7676   -3.4399    5.1799 C.ar      1 <0>        -0.1234
     26 C18        -7.0817   -3.0091    5.1854 C.ar      1 <0>        -0.0606
     27 C19        -7.6796   -2.5816    4.0171 C.ar      1 <0>        -0.0614
     28 C20        -6.9625   -2.5828    2.8217 C.ar      1 <0>         0.1738
     29 N3         -7.3388   -2.2037    1.5307 N.am      1 <0>        -0.6526
     30 C21        -6.3375   -2.3599    0.6433 C.2       1 <0>         0.5639
     31 O3         -6.3761   -2.1120   -0.5434 O.2       1 <0>        -0.4717
     32 Cl1        -9.3295   -2.0419    4.0362 Cl        1 <0>        -0.0605
     33 H4          1.0001    2.1870    0.0043 H         1 <0>         0.1020
     34 H5         -0.5497    2.1708   -0.8711 H         1 <0>         0.0766
     35 H6         -0.5327    2.1613    0.9088 H         1 <0>         0.0762
     36 H7         -2.2257   -0.0675    0.9130 H         1 <0>         0.0887
     37 H8         -2.2427   -0.0579   -0.8669 H         1 <0>         0.0843
     38 H9         -1.4032   -2.3910   -0.8874 H         1 <0>         0.0984
     39 H10        -1.3862   -2.4006    0.8924 H         1 <0>         0.0754
     40 H11        -2.4172   -6.3326    3.4577 H         1 <0>         0.1105
     41 H12        -0.5743   -4.1885    2.4066 H         1 <0>         0.0792
     42 H13        -0.9562   -4.6296    4.1005 H         1 <0>         0.0737
     43 H14         1.4335   -5.3388    3.0731 H         1 <0>         0.0739
     44 H15         0.5220   -6.5343    4.0532 H         1 <0>         0.0705
     45 H16         0.6602   -6.2846    0.9980 H         1 <0>         0.0759
     46 H17         0.8822   -7.7512    2.0028 H         1 <0>         0.0685
     47 H18        -1.4128   -8.0368    2.3129 H         1 <0>         0.0763
     48 H19        -1.5257   -7.0887    0.8032 H         1 <0>         0.0685
     49 H20        -3.3384   -2.1720    2.0854 H         1 <0>         0.3520
     50 H21        -4.0226   -3.7798    3.9913 H         1 <0>         0.1249
     51 H22        -5.3034   -3.7730    6.0964 H         1 <0>         0.1425
     52 H23        -7.6427   -3.0069    6.1083 H         1 <0>         0.1456
     53 H24        -8.2190   -1.8675    1.3001 H         1 <0>         0.4220
@<TRIPOS>BOND
     1    1    2 1
     2    1   33 1
     3    1   34 1
     4    1   35 1
     5    2    3 1
     6    3    4 1
     7    3   36 1
     8    3   37 1
     9    4    5 1
    10    4   38 1
    11    4   39 1
    12    5    6 1
    13    5   22 1
    14    5    7 1
    15    7    8 1
    16    7   14 1
    17    7    9 1
    18    9   10 1
    19    9   11 1
    20    9   21 1
    21   11   12 2
    22   11   13 am
    23   13   14 am
    24   13   16 1
    25   14   15 2
    26   16   20 1
    27   16   17 1
    28   16   40 1
    29   17   18 1
    30   17   41 1
    31   17   42 1
    32   18   19 1
    33   18   43 1
    34   18   44 1
    35   19   20 1
    36   19   45 1
    37   19   46 1
    38   20   47 1
    39   20   48 1
    40   21   30 1
    41   21   22 1
    42   21   23 1
    43   22   49 1
    44   23   28 ar
    45   23   24 ar
    46   24   25 ar
    47   24   50 1
    48   25   26 ar
    49   25   51 1
    50   26   27 ar
    51   26   52 1
    52   27   28 ar
    53   27   32 1
    54   28   29 1
    55   29   30 am
    56   29   53 1
    57   30   31 2
@<TRIPOS>MOLECULE
ZINC02438830
   41    43     0     0     0
SMALL
USER_CHARGES

@<TRIPOS>ATOM
      1 C1          0.7611    1.4030   -0.3246 C.3       1 <0>        -0.1228
      2 C2          0.5884   -0.0934   -0.2771 C.ar      1 <0>        -0.0526
      3 C3          0.2993   -0.7904   -1.4368 C.ar      1 <0>        -0.1278
      4 C4          0.1399   -2.1603   -1.4002 C.ar      1 <0>        -0.0478
      5 C5          0.2710   -2.8429   -0.1899 C.ar      1 <0>        -0.1408
      6 C6          0.5627   -2.1337    0.9763 C.ar      1 <0>        -0.0799
      7 C7          0.7251   -0.7647    0.9250 C.ar      1 <0>        -0.1278
      8 C8          0.1011   -4.3109   -0.1432 C.2       1 <0>         0.5500
      9 O1         -0.1533   -4.9259   -1.1603 O.2       1 <0>        -0.4735
     10 N1          0.2282   -4.9671    1.0271 N.am      1 <0>        -0.7048
     11 C9         -0.0446   -6.4049    1.0941 C.3       1 <0>         0.2637
     12 C10        -1.4154   -6.7134    0.5249 C.2       1 <0>         0.5070
     13 O2         -1.8061   -6.5165   -0.6060 O.2       1 <0>        -0.3760
     14 N2         -2.1066   -7.2552    1.5499 N.am      1 <0>        -0.5083
     15 C11        -1.3277   -7.3172    2.6794 C.2       1 <0>         0.5901
     16 N3         -0.1353   -6.8486    2.4942 N.2       1 <0>        -0.5607
     17 O3         -1.7603   -7.8137    3.8589 O.3       1 <0>        -0.4269
     18 C12        -3.4362   -7.6933    1.4725 C.ar      1 <0>         0.1294
     19 C13        -4.0161   -8.3487    2.5502 C.ar      1 <0>        -0.1201
     20 C14        -5.3260   -8.7794    2.4716 C.ar      1 <0>        -0.0845
     21 C15        -6.0603   -8.5581    1.3197 C.ar      1 <0>        -0.0406
     22 C16        -5.4845   -7.9050    0.2441 C.ar      1 <0>        -0.0822
     23 C17        -4.1767   -7.4673    0.3201 C.ar      1 <0>        -0.1222
     24 Cl1        -7.7064   -9.1011    1.2237 Cl        1 <0>        -0.0576
     25 C18         1.0378   -7.1905    0.3510 C.3       1 <0>         0.4686
     26 F1          2.2711   -6.9966    0.9823 F         1 <0>        -0.1585
     27 F2          0.7169   -8.5521    0.3627 F         1 <0>        -0.1737
     28 F3          1.1152   -6.7410   -0.9716 F         1 <0>        -0.1426
     29 H1          1.8068    1.6420   -0.5182 H         1 <0>         0.0777
     30 H2          0.1407    1.8152   -1.1204 H         1 <0>         0.0717
     31 H3          0.4607    1.8339    0.6305 H         1 <0>         0.0711
     32 H4          0.1978   -0.2610   -2.3726 H         1 <0>         0.1332
     33 H5         -0.0860   -2.7032   -2.3061 H         1 <0>         0.1398
     34 H6          0.6653   -2.6560    1.9160 H         1 <0>         0.1256
     35 H7          0.9552   -0.2152    1.8258 H         1 <0>         0.1317
     36 H8          0.5004   -4.4874    1.8250 H         1 <0>         0.4213
     37 H9         -1.0972   -7.7907    4.5623 H         1 <0>         0.4388
     38 H10        -3.4433   -8.5220    3.4492 H         1 <0>         0.1605
     39 H11        -5.7774   -9.2897    3.3096 H         1 <0>         0.1466
     40 H12        -6.0596   -7.7334   -0.6538 H         1 <0>         0.1463
     41 H13        -3.7292   -6.9534   -0.5177 H         1 <0>         0.1585
@<TRIPOS>BOND
     1    1    2 1
     2    1   29 1
     3    1   30 1
     4    1   31 1
     5    2    7 ar
     6    2    3 ar
     7    3    4 ar
     8    3   32 1
     9    4    5 ar
    10    4   33 1
    11    5    6 ar
    12    5    8 1
    13    6    7 ar
    14    6   34 1
    15    7   35 1
    16    8    9 2
    17    8   10 am
    18   10   11 1
    19   10   36 1
    20   11   16 1
    21   11   12 1
    22   11   25 1
    23   12   13 2
    24   12   14 am
    25   14   15 1
    26   14   18 1
    27   15   16 2
    28   15   17 1
    29   17   37 1
    30   18   23 ar
    31   18   19 ar
    32   19   20 ar
    33   19   38 1
    34   20   21 ar
    35   20   39 1
    36   21   22 ar
    37   21   24 1
    38   22   23 ar
    39   22   40 1
    40   23   41 1
    41   25   26 1
    42   25   27 1
    43   25   28 1
@<TRIPOS>MOLECULE
ZINC10936108
   45    47     0     0     0
SMALL
USER_CHARGES
(5-methyl-6-thia-2-azabicyclo[5.4.0]undeca-8,10,12-trien-2-yl)carbonylmethyl 3-sulfamoylthiophene-2-carboxylate
@<TRIPOS>ATOM
      1 C1          7.4332   -7.0682    3.3868 C.3       1 <0>        -0.1338
      2 C2          6.5988   -6.9648    2.1085 C.3       1 <0>        -0.0630
      3 H1          6.7334   -7.8689    1.5147 H         1 <0>         0.0913
      4 C3          7.0603   -5.7595    1.3039 C.3       1 <0>        -0.1390
      5 C4          6.5029   -5.6624   -0.0974 C.3       1 <0>         0.1200
      6 N1          5.0570   -5.3944   -0.0761 N.am      1 <0>        -0.5624
      7 C5          4.1769   -6.4855   -0.0741 C.ar      1 <0>         0.1417
      8 C6          3.4552   -6.7909   -1.2222 C.ar      1 <0>        -0.1223
      9 C7          2.6228   -7.8947   -1.2355 C.ar      1 <0>        -0.0884
     10 C8          2.5025   -8.7024   -0.1193 C.ar      1 <0>        -0.1106
     11 C9          3.2042   -8.3960    1.0353 C.ar      1 <0>        -0.0617
     12 C10         4.0170   -7.2790    1.0529 C.ar      1 <0>        -0.1010
     13 S1          4.8442   -6.7870    2.5466 S.3       1 <0>        -0.1456
     14 C11         4.5894   -4.1304   -0.0645 C.2       1 <0>         0.5346
     15 O1          5.3641   -3.1971   -0.0665 O.2       1 <0>        -0.4985
     16 C12         3.1040   -3.8767   -0.0492 C.3       1 <0>         0.0530
     17 O2          2.8575   -2.4458   -0.0387 O.3       1 <0>        -0.3224
     18 C13         1.5691   -2.0463   -0.0243 C.2       1 <0>         0.5365
     19 O3          0.6764   -2.8723   -0.0206 O.2       1 <0>        -0.4505
     20 C14         1.2455   -0.6187   -0.0132 C.2       1 <0>        -0.1412
     21 C15         0.0021   -0.0041    0.0020 C.2       1 <0>        -0.6273
     22 C16        -0.0165    1.3679    0.0096 C.2       1 <0>        -0.1102
     23 C17         1.1605    2.0477    0.0020 C.2       1 <0>        -0.1987
     24 S2          2.3475    0.7844   -0.0161 S.3       1 <0>         0.2836
     25 S3         -1.4883   -0.9440    0.0106 S.o2      1 <0>         2.7122
     26 O4         -1.3443   -1.9243    1.0292 O.2       1 <0>        -0.9349
     27 O5         -2.5582   -0.0090   -0.0010 O.2       1 <0>        -0.9595
     28 N2         -1.5593   -1.7625   -1.4272 N.pl3     1 <0>        -1.2374
     29 H2          7.1114   -7.9368    3.9614 H         1 <0>         0.0700
     30 H3          8.4861   -7.1749    3.1258 H         1 <0>         0.0748
     31 H4          7.2964   -6.1666    3.9839 H         1 <0>         0.0652
     32 H5          6.7799   -4.8574    1.8477 H         1 <0>         0.0811
     33 H6          8.1476   -5.7907    1.2339 H         1 <0>         0.0879
     34 H7          6.6836   -6.6021   -0.6195 H         1 <0>         0.0819
     35 H8          7.0069   -4.8568   -0.6314 H         1 <0>         0.1012
     36 H9          3.5441   -6.1683   -2.1001 H         1 <0>         0.1327
     37 H10         2.0601   -8.1285   -2.1271 H         1 <0>         0.1349
     38 H11         1.8622   -9.5717   -0.1479 H         1 <0>         0.1366
     39 H12         3.1172   -9.0227    1.9105 H         1 <0>         0.1420
     40 H13         2.6677   -4.3270    0.8424 H         1 <0>         0.1122
     41 H14         2.6509   -4.3169   -0.9374 H         1 <0>         0.1085
     42 H15        -0.9555    1.9014    0.0169 H         1 <0>         0.1637
     43 H16         1.3180    3.1162    0.0062 H         1 <0>         0.2047
     44 H17        -2.0098   -2.6201   -1.4754 H         1 <0>         0.4242
     45 H18        -1.1503   -1.3842   -2.2213 H         1 <0>         0.4140
@<TRIPOS>BOND
     1    1    2 1
     2    1   29 1
     3    1   30 1
     4    1   31 1
     5    2    3 1
     6    2   13 1
     7    2    4 1
     8    4    5 1
     9    4   32 1
    10    4   33 1
    11    5    6 1
    12    5   34 1
    13    5   35 1
    14    6    7 1
    15    6   14 am
    16    7   12 ar
    17    7    8 ar
    18    8    9 ar
    19    8   36 1
    20    9   10 ar
    21    9   37 1
    22   10   11 ar
    23   10   38 1
    24   11   12 ar
    25   11   39 1
    26   12   13 1
    27   14   15 2
    28   14   16 1
    29   16   17 1
    30   16   40 1
    31   16   41 1
    32   17   18 1
    33   18   19 2
    34   18   20 1
    35   20   24 1
    36   20   21 2
    37   21   22 1
    38   21   25 1
    39   22   23 2
    40   22   42 1
    41   23   24 1
    42   23   43 1
    43   25   26 2
    44   25   27 2
    45   25   28 1
    46   28   44 1
    47   28   45 1
@<TRIPOS>MOLECULE
ZINC17702514
   49    51     0     0     0
SMALL
USER_CHARGES
N-[(2S)-2-(2-chlorophenyl)-2-dimethylamino-ethyl]-2-(1,4-dioxo-3H-phthalazin-2-yl)acetamide
@<TRIPOS>ATOM
      1 C1          4.1711    3.9184   -1.2176 C.3       1 <0>        -0.0627
      2 N1          3.4345    2.8395   -0.5459 N.4       1 <0>        -0.3979
      3 C2          4.1888    2.3237    0.6043 C.3       1 <0>        -0.0728
      4 C3          2.0966    3.2895   -0.1390 C.3       1 <0>         0.0731
      5 H1          1.7128    3.9531   -0.9279 H         1 <0>         0.1529
      6 C4          2.1913    4.0264    1.1985 C.3       1 <0>         0.1005
      7 N2          2.9308    5.2777    1.0153 N.am      1 <0>        -0.7687
      8 C5          3.2602    6.0286    2.0850 C.2       1 <0>         0.5049
      9 O1          2.9443    5.6684    3.1992 O.2       1 <0>        -0.4966
     10 C6          4.0209    7.3158    1.8966 C.3       1 <0>         0.1294
     11 N3          4.2546    7.9403    3.2010 N.am      1 <0>        -0.3826
     12 C7          5.3759    7.6322    3.8815 C.2       1 <0>         0.5126
     13 O2          6.1788    6.8476    3.4158 O.2       1 <0>        -0.5981
     14 C8          5.6222    8.2567    5.1994 C.ar      1 <0>        -0.1161
     15 C9          6.7622    7.9717    5.9378 C.ar      1 <0>        -0.0751
     16 C10         6.9512    8.5802    7.1665 C.ar      1 <0>        -0.1344
     17 C11         6.0140    9.4691    7.6625 C.ar      1 <0>        -0.1111
     18 C12         4.8720    9.7638    6.9382 C.ar      1 <0>        -0.0905
     19 C13         4.6676    9.1616    5.7047 C.ar      1 <0>        -0.1038
     20 C14         3.4636    9.4448    4.8937 C.2       1 <0>         0.4649
     21 O3          2.6202   10.2202    5.2995 O.3       1 <0>        -0.6102
     22 N4          3.3119    8.8408    3.6989 N.2       1 <0>        -0.4962
     23 C15         1.1883    2.0960    0.0082 C.ar      1 <0>        -0.1204
     24 C16         1.7244    0.8237    0.0771 C.ar      1 <0>        -0.1317
     25 C17         0.8914   -0.2711    0.2117 C.ar      1 <0>        -0.0946
     26 C18        -0.4786   -0.0949    0.2718 C.ar      1 <0>        -0.0837
     27 C19        -1.0153    1.1770    0.2087 C.ar      1 <0>        -0.0909
     28 C20        -0.1820    2.2734    0.0740 C.ar      1 <0>        -0.0147
     29 Cl1        -0.8558    3.8710   -0.0119 Cl        1 <0>        -0.0357
     30 H2          3.5849    4.2853   -2.0730 H         1 <0>         0.1296
     31 H3          5.1388    3.5353   -1.5736 H         1 <0>         0.1342
     32 H4          4.3412    4.7425   -0.5092 H         1 <0>         0.1297
     33 H5          3.6155    1.5188    1.0876 H         1 <0>         0.1301
     34 H6          4.3590    3.1367    1.3255 H         1 <0>         0.1336
     35 H7          5.1566    1.9294    0.2610 H         1 <0>         0.1321
     36 H8          1.1790    4.2492    1.5668 H         1 <0>         0.1076
     37 H9          2.7164    3.3938    1.9293 H         1 <0>         0.0983
     38 H10         3.2172    5.6044    0.0047 H         1 <0>         0.4118
     39 H11         4.9861    7.1039    1.4133 H         1 <0>         0.1076
     40 H12         3.4355    7.9983    1.2629 H         1 <0>         0.1151
     41 H13         7.4974    7.2788    5.5561 H         1 <0>         0.1278
     42 H14         7.8377    8.3598    7.7426 H         1 <0>         0.1225
     43 H15         6.1750    9.9370    8.6224 H         1 <0>         0.1224
     44 H16         4.1442   10.4587    7.3305 H         1 <0>         0.1322
     45 H17         2.7942    0.6851    0.0262 H         1 <0>         0.1359
     46 H18         1.3107   -1.2649    0.2655 H         1 <0>         0.1428
     47 H19        -1.1292   -0.9510    0.3724 H         1 <0>         0.1456
     48 H20        -2.0852    1.3150    0.2604 H         1 <0>         0.1486
     49 H21         3.3102    2.0165   -1.2651 H         1 <0>         0.4429
@<TRIPOS>BOND
     1    1    2 1
     2    1   30 1
     3    1   31 1
     4    1   32 1
     5    2    3 1
     6    2    4 1
     7    2   49 1
     8    3   33 1
     9    3   34 1
    10    3   35 1
    11    4    5 1
    12    4    6 1
    13    4   23 1
    14    6    7 1
    15    6   36 1
    16    6   37 1
    17    7    8 am
    18    7   38 1
    19    8    9 2
    20    8   10 1
    21   10   11 1
    22   10   39 1
    23   10   40 1
    24   11   22 1
    25   11   12 am
    26   12   13 2
    27   12   14 1
    28   14   19 ar
    29   14   15 ar
    30   15   16 ar
    31   15   41 1
    32   16   17 ar
    33   16   42 1
    34   17   18 ar
    35   17   43 1
    36   18   19 ar
    37   18   44 1
    38   19   20 1
    39   20   21 1
    40   20   22 2
    41   23   28 ar
    42   23   24 ar
    43   24   25 ar
    44   24   45 1
    45   25   26 ar
    46   25   46 1
    47   26   27 ar
    48   26   47 1
    49   27   28 ar
    50   27   48 1
    51   28   29 1
@<TRIPOS>MOLECULE
ZINC35683504
   45    48     0     0     0
SMALL
USER_CHARGES

@<TRIPOS>ATOM
      1 C1          0.1343    1.6977    0.0891 C.3       1 <0>         0.0226
      2 O1          0.0827    0.2701    0.1229 O.3       1 <0>        -0.2813
      3 C2          0.5894   -0.3864   -0.9411 C.2       1 <0>         0.5474
      4 O2          1.0624    0.2377   -1.8722 O.2       1 <0>        -0.5322
      5 C3          0.5703   -1.8488   -0.9753 C.2       1 <0>        -0.2699
      6 C4          1.0854   -2.5883   -2.0480 C.2       1 <0>         0.1400
      7 S1          0.8199   -4.1795   -1.5908 S.3       1 <0>         0.5548
      8 N1          0.0872   -3.9568   -0.1052 N.pl3     1 <0>        -0.5360
      9 C5          0.0421   -2.6221    0.0619 C.2       1 <0>         0.3054
     10 S2         -0.6308   -1.9104    1.4660 S.2       1 <0>        -0.4886
     11 C6         -0.3734   -4.9410    0.7731 C.ar      1 <0>         0.1312
     12 C7         -1.6954   -4.9294    1.2005 C.ar      1 <0>        -0.0670
     13 C8         -2.1472   -5.9036    2.0687 C.ar      1 <0>        -0.1044
     14 C9         -1.2854   -6.8897    2.5131 C.ar      1 <0>        -0.0961
     15 C10         0.0312   -6.9040    2.0901 C.ar      1 <0>        -0.1066
     16 C11         0.4880   -5.9368    1.2168 C.ar      1 <0>        -0.1059
     17 N2          1.6706   -2.1199   -3.2030 N.am      1 <0>        -0.5913
     18 C12         2.1125   -2.9879   -4.1345 C.2       1 <0>         0.5640
     19 O3          1.9155   -4.1786   -3.9972 O.2       1 <0>        -0.4701
     20 C13         2.8389   -2.4894   -5.3268 C.2       1 <0>        -0.0409
     21 C14         3.1899   -1.1736   -5.4309 C.2       1 <0>        -0.1325
     22 C15         3.9054   -0.7125   -6.6184 C.2       1 <0>         0.5353
     23 O4          4.2188    0.4609   -6.7121 O.2       1 <0>        -0.5101
     24 N3          4.2235   -1.5639   -7.6091 N.am      1 <0>        -0.6235
     25 H1          4.6994   -1.2320   -8.3864 H         1 <0>         0.4225
     26 C16         3.8874   -2.8991   -7.5423 C.ar      1 <0>         0.1879
     27 C17         3.2032   -3.4022   -6.4214 C.ar      1 <0>        -0.1102
     28 C18         2.8712   -4.7585   -6.3596 C.ar      1 <0>        -0.0612
     29 C19         3.2178   -5.5905   -7.3864 C.ar      1 <0>        -0.1458
     30 C20         3.8980   -5.0999   -8.4925 C.ar      1 <0>        -0.0560
     31 C21         4.2262   -3.7644   -8.5793 C.ar      1 <0>        -0.1634
     32 H2          1.1721    2.0220    0.0120 H         1 <0>         0.0583
     33 H3         -0.4250    2.0613   -0.7729 H         1 <0>         0.0581
     34 H4         -0.3047    2.0989    1.0026 H         1 <0>         0.1037
     35 H5         -2.3688   -4.1592    0.8544 H         1 <0>         0.1361
     36 H6         -3.1747   -5.8952    2.4013 H         1 <0>         0.1378
     37 H7         -1.6413   -7.6502    3.1924 H         1 <0>         0.1342
     38 H8          0.7017   -7.6751    2.4397 H         1 <0>         0.1372
     39 H9          1.5150   -5.9515    0.8828 H         1 <0>         0.1313
     40 H10         1.7647   -1.1651   -3.3462 H         1 <0>         0.4443
     41 H11         2.9402   -0.4795   -4.6420 H         1 <0>         0.1653
     42 H12         2.3424   -5.1479   -5.5022 H         1 <0>         0.1652
     43 H13         2.9609   -6.6383   -7.3369 H         1 <0>         0.1346
     44 H14         4.1656   -5.7698   -9.2963 H         1 <0>         0.1363
     45 H15         4.7554   -3.3921   -9.4440 H         1 <0>         0.1390
@<TRIPOS>BOND
     1    1    2 1
     2    1   32 1
     3    1   33 1
     4    1   34 1
     5    2    3 1
     6    3    4 2
     7    3    5 1
     8    5    9 1
     9    5    6 2
    10    6    7 1
    11    6   17 1
    12    7    8 1
    13    8    9 1
    14    8   11 1
    15    9   10 2
    16   11   16 ar
    17   11   12 ar
    18   12   13 ar
    19   12   35 1
    20   13   14 ar
    21   13   36 1
    22   14   15 ar
    23   14   37 1
    24   15   16 ar
    25   15   38 1
    26   16   39 1
    27   17   18 am
    28   17   40 1
    29   18   19 2
    30   18   20 1
    31   20   27 1
    32   20   21 2
    33   21   22 1
    34   21   41 1
    35   22   23 2
    36   22   24 am
    37   24   25 1
    38   24   26 1
    39   26   31 ar
    40   26   27 ar
    41   27   28 ar
    42   28   29 ar
    43   28   42 1
    44   29   30 ar
    45   29   43 1
    46   30   31 ar
    47   30   44 1
    48   31   45 1
@<TRIPOS>MOLECULE
ZINC05290112
   51    53     0     0     0
SMALL
USER_CHARGES

@<TRIPOS>ATOM
      1 C1         -0.0187    1.5258    0.0104 C.3       1 <0>        -0.1695
      2 C2          0.0021   -0.0041    0.0020 C.3       1 <0>         0.0722
      3 H1         -1.0205   -0.3814    0.0098 H         1 <0>         0.1163
      4 C3          0.7309   -0.5033    1.2229 C.2       1 <0>         0.5190
      5 O1          1.7744   -1.1092    1.1007 O.2       1 <0>        -0.4983
      6 N1          0.2232   -0.2765    2.4506 N.am      1 <0>        -0.7189
      7 C4          0.9317   -0.7618    3.6375 C.3       1 <0>         0.2842
      8 C5          1.0616   -2.2846    3.5668 C.3       1 <0>        -0.1293
      9 C6          1.8016   -2.7914    4.8063 C.3       1 <0>        -0.1223
     10 C7          1.0179   -2.4042    6.0620 C.3       1 <0>        -0.1239
     11 C8          0.8881   -0.8813    6.1327 C.3       1 <0>        -0.1213
     12 C9          0.1481   -0.3745    4.8932 C.3       1 <0>        -0.1193
     13 C10         2.2727   -0.1569    3.6899 C.1       1 <0>         0.2032
     14 N2          3.3075    0.3100    3.7304 N.1       1 <0>        -0.4066
     15 O2          0.6709   -0.4649   -1.1737 O.3       1 <0>        -0.3206
     16 C11        -0.0852   -0.6723   -2.2632 C.2       1 <0>         0.4727
     17 O3         -1.2755   -0.4693   -2.2201 O.2       1 <0>        -0.4835
     18 C12         0.5506   -1.1584   -3.5402 C.3       1 <0>        -0.1039
     19 C13        -0.5238   -1.3116   -4.6186 C.3       1 <0>        -0.0888
     20 H2         -1.3178   -1.9637   -4.2546 H         1 <0>         0.1623
     21 C14         0.0875   -1.9035   -5.8620 C.2       1 <0>         0.5310
     22 O4         -0.0352   -3.0949   -6.0542 O.2       1 <0>        -0.5017
     23 N3          0.7542   -1.1839   -6.7585 N.am      1 <0>        -0.6516
     24 C15         0.8980    0.2002   -6.7717 C.ar      1 <0>         0.1568
     25 C16         1.8935    0.7717   -7.5584 C.ar      1 <0>        -0.1391
     26 C17         2.0622    2.1418   -7.5814 C.ar      1 <0>        -0.0800
     27 C18         1.2460    2.9617   -6.8235 C.ar      1 <0>        -0.1250
     28 C19         0.2506    2.4079   -6.0395 C.ar      1 <0>        -0.0563
     29 C20         0.0741    1.0343   -6.0167 C.ar      1 <0>        -0.1430
     30 S1         -1.2137    0.3204   -5.0307 S.3       1 <0>        -0.0499
     31 H3          1.0039    1.9031    0.0027 H         1 <0>         0.0739
     32 H4         -0.5459    1.8868   -0.8726 H         1 <0>         0.0819
     33 H5         -0.5289    1.8773    0.9072 H         1 <0>         0.0827
     34 H6         -0.6114    0.2081    2.5483 H         1 <0>         0.4122
     35 H7          0.0687   -2.7325    3.5279 H         1 <0>         0.0871
     36 H8          1.6199   -2.5605    2.6722 H         1 <0>         0.0931
     37 H9          1.8941   -3.8763    4.7559 H         1 <0>         0.0764
     38 H10         2.7946   -2.3435    4.8451 H         1 <0>         0.0626
     39 H11         0.0250   -2.8521    6.0232 H         1 <0>         0.0705
     40 H12         1.5451   -2.7652    6.9451 H         1 <0>         0.0696
     41 H13         0.3298   -0.6054    7.0273 H         1 <0>         0.0796
     42 H14         1.8810   -0.4334    6.1715 H         1 <0>         0.0645
     43 H15         0.0556    0.7104    4.9435 H         1 <0>         0.0812
     44 H16        -0.8449   -0.8224    4.8543 H         1 <0>         0.0954
     45 H17         1.2977   -0.4372   -3.8715 H         1 <0>         0.1164
     46 H18         1.0287   -2.1220   -3.3641 H         1 <0>         0.1286
     47 H19         1.1847   -1.6734   -7.4768 H         1 <0>         0.4166
     48 H20         2.5368    0.1407   -8.1537 H         1 <0>         0.1347
     49 H21         2.8372    2.5764   -8.1954 H         1 <0>         0.1349
     50 H22         1.3861    4.0324   -6.8437 H         1 <0>         0.1353
     51 H23        -0.3883    3.0454   -5.4463 H         1 <0>         0.1375
@<TRIPOS>BOND
     1    1    2 1
     2    1   31 1
     3    1   32 1
     4    1   33 1
     5    2    3 1
     6    2    4 1
     7    2   15 1
     8    4    5 2
     9    4    6 am
    10    6    7 1
    11    6   34 1
    12    7   12 1
    13    7    8 1
    14    7   13 1
    15    8    9 1
    16    8   35 1
    17    8   36 1
    18    9   10 1
    19    9   37 1
    20    9   38 1
    21   10   11 1
    22   10   39 1
    23   10   40 1
    24   11   12 1
    25   11   41 1
    26   11   42 1
    27   12   43 1
    28   12   44 1
    29   13   14 3
    30   15   16 1
    31   16   17 2
    32   16   18 1
    33   18   19 1
    34   18   45 1
    35   18   46 1
    36   19   20 1
    37   19   30 1
    38   19   21 1
    39   21   22 2
    40   21   23 am
    41   23   24 1
    42   23   47 1
    43   24   29 ar
    44   24   25 ar
    45   25   26 ar
    46   25   48 1
    47   26   27 ar
    48   26   49 1
    49   27   28 ar
    50   27   50 1
    51   28   29 ar
    52   28   51 1
    53   29   30 1
@<TRIPOS>MOLECULE
ZINC64739826
   43    45     0     0     0
SMALL
USER_CHARGES

@<TRIPOS>ATOM
      1 C1         -0.0921    1.5477   -0.1499 C.3       1 <0>        -0.1420
      2 C2         -0.0576    0.0183   -0.1277 C.3       1 <0>        -0.1180
      3 S1          0.7985   -0.5887   -1.6073 S.3       1 <0>         0.0582
      4 C3          0.7553   -2.3418   -1.4357 C.2       1 <0>         0.4237
      5 N1          0.1578   -2.8341   -0.3643 N.2       1 <0>        -0.6327
      6 C4          0.1274   -4.1435   -0.1070 C.2       1 <0>         0.5247
      7 O1         -0.4479   -4.5892    0.8669 O.2       1 <0>        -0.4271
      8 C5          0.8446   -5.0466   -1.0890 C.3       1 <0>        -0.1945
      9 H1          1.6594   -5.5523   -0.5708 H         1 <0>         0.1597
     10 C6         -0.1482   -6.0995   -1.5852 C.3       1 <0>        -0.0926
     11 H2         -0.9219   -5.6192   -2.1843 H         1 <0>         0.1080
     12 C7          0.6070   -7.1183   -2.4425 C.3       1 <0>        -0.1312
     13 C8          1.4662   -6.4307   -3.4637 C.2       1 <0>         0.5349
     14 O2          1.8455   -7.0663   -4.4238 O.2       1 <0>        -0.4752
     15 N2          1.8332   -5.1426   -3.3612 N.am      1 <0>        -0.6246
     16 C9          1.3980   -4.3690   -2.3290 C.2       1 <0>         0.5029
     17 N3          1.3253   -3.0701   -2.4031 N.2       1 <0>        -0.5681
     18 C10        -0.7798   -6.7944   -0.4065 C.2       1 <0>         0.5377
     19 O3         -0.0990   -7.4716    0.3344 O.2       1 <0>        -0.4971
     20 N4         -2.1012   -6.6633   -0.1757 N.am      1 <0>        -0.6544
     21 C11        -2.6728   -7.2389    0.9648 C.ar      1 <0>         0.1691
     22 C12        -2.0740   -8.3402    1.5628 C.ar      1 <0>        -0.1245
     23 C13        -2.6399   -8.9059    2.6882 C.ar      1 <0>        -0.0756
     24 C14        -3.8027   -8.3768    3.2201 C.ar      1 <0>        -0.1039
     25 C15        -4.4012   -7.2799    2.6265 C.ar      1 <0>        -0.0712
     26 C16        -3.8363   -6.7065    1.5039 C.ar      1 <0>        -0.1059
     27 C17        -4.4855   -5.5078    0.8614 C.3       1 <0>        -0.1150
     28 Br1        -4.5754   -9.1549    4.7606 Br        1 <0>        -0.0513
     29 H3          0.9271    1.9340   -0.1641 H         1 <0>         0.0682
     30 H4         -0.6214    1.8864   -1.0405 H         1 <0>         0.0685
     31 H5         -0.6065    1.9125    0.7392 H         1 <0>         0.0841
     32 H6          0.4717   -0.3203    0.7629 H         1 <0>         0.1015
     33 H7         -1.0768   -0.3679   -0.1135 H         1 <0>         0.1023
     34 H8          1.2376   -7.7308   -1.7982 H         1 <0>         0.1380
     35 H9         -0.1117   -7.7595   -2.9528 H         1 <0>         0.1328
     36 H10         2.4284   -4.7587   -4.0240 H         1 <0>         0.4319
     37 H11        -2.6560   -6.1700   -0.7999 H         1 <0>         0.4110
     38 H12        -1.1669   -8.7541    1.1478 H         1 <0>         0.1608
     39 H13        -2.1747   -9.7623    3.1536 H         1 <0>         0.1358
     40 H14        -5.3087   -6.8689    3.0436 H         1 <0>         0.1363
     41 H15        -5.2026   -5.8414    0.1114 H         1 <0>         0.0739
     42 H16        -5.0015   -4.9226    1.6225 H         1 <0>         0.0762
     43 H17        -3.7218   -4.8925    0.3857 H         1 <0>         0.0650
@<TRIPOS>BOND
     1    1    2 1
     2    1   29 1
     3    1   30 1
     4    1   31 1
     5    2    3 1
     6    2   32 1
     7    2   33 1
     8    3    4 1
     9    4   17 1
    10    4    5 2
    11    5    6 1
    12    6    7 2
    13    6    8 1
    14    8    9 1
    15    8   16 1
    16    8   10 1
    17   10   11 1
    18   10   12 1
    19   10   18 1
    20   12   13 1
    21   12   34 1
    22   12   35 1
    23   13   14 2
    24   13   15 am
    25   15   16 1
    26   15   36 1
    27   16   17 2
    28   18   19 2
    29   18   20 am
    30   20   21 1
    31   20   37 1
    32   21   26 ar
    33   21   22 ar
    34   22   23 ar
    35   22   38 1
    36   23   24 ar
    37   23   39 1
    38   24   25 ar
    39   24   28 1
    40   25   26 ar
    41   25   40 1
    42   26   27 1
    43   27   41 1
    44   27   42 1
    45   27   43 1
@<TRIPOS>MOLECULE
ZINC04697557
   28    30     0     0     0
SMALL
USER_CHARGES
(1-oxoindan-2-ylidene)amino thiophene-2-carboxylate
@<TRIPOS>ATOM
      1 C1          0.6915   -4.7135   -0.0336 C.ar      1 <0>        -0.0720
      2 C2         -0.6926   -4.7076   -0.0204 C.ar      1 <0>        -0.1304
      3 C3         -1.3800   -3.5137   -0.0059 C.ar      1 <0>        -0.0373
      4 C4         -0.6780   -2.3012   -0.0050 C.ar      1 <0>        -0.1782
      5 C5          0.7162   -2.3170   -0.0184 C.ar      1 <0>        -0.0436
      6 C6          1.3924   -3.5209   -0.0326 C.ar      1 <0>        -0.1130
      7 C7          1.2218   -0.8951   -0.0205 C.3       1 <0>        -0.0789
      8 C8          0.0021   -0.0041    0.0020 C.2       1 <0>         0.0833
      9 N1         -0.0155    1.2896    0.0091 N.2       1 <0>        -0.2089
     10 O1          1.2011    2.0142    0.0014 O.3       1 <0>        -0.2095
     11 C9          1.0418    3.3540    0.0101 C.2       1 <0>         0.5613
     12 O2         -0.0759    3.8336    0.0234 O.2       1 <0>        -0.4535
     13 C10         2.2141    4.2303    0.0036 C.2       1 <0>        -0.2419
     14 C11         2.2698    5.6166    0.0106 C.2       1 <0>        -0.0489
     15 C12         3.5153    6.1916    0.0017 C.2       1 <0>        -0.1833
     16 C13         4.6152    5.3928   -0.0131 C.2       1 <0>        -0.1733
     17 S1          3.9441    3.7944   -0.0073 S.3       1 <0>         0.1840
     18 C14        -1.1660   -0.9070    0.0078 C.2       1 <0>         0.4581
     19 O3         -2.3314   -0.5618    0.0206 O.2       1 <0>        -0.3946
     20 H1          1.2259   -5.6520   -0.0444 H         1 <0>         0.1368
     21 H2         -1.2352   -5.6414   -0.0213 H         1 <0>         0.1375
     22 H3         -2.4599   -3.5125    0.0044 H         1 <0>         0.1363
     23 H4          2.4723   -3.5314   -0.0433 H         1 <0>         0.1352
     24 H5          1.8060   -0.7058   -0.9211 H         1 <0>         0.1192
     25 H6          1.8315   -0.7162    0.8651 H         1 <0>         0.1187
     26 H7          1.3719    6.2168    0.0227 H         1 <0>         0.1534
     27 H8          3.6209    7.2664    0.0069 H         1 <0>         0.1474
     28 H9          5.6553    5.6835   -0.0211 H         1 <0>         0.1962
@<TRIPOS>BOND
     1    1    6 ar
     2    1    2 ar
     3    1   20 1
     4    2    3 ar
     5    2   21 1
     6    3    4 ar
     7    3   22 1
     8    4   18 1
     9    4    5 ar
    10    5    6 ar
    11    5    7 1
    12    6   23 1
    13    7    8 1
    14    7   24 1
    15    7   25 1
    16    8    9 2
    17    8   18 1
    18    9   10 1
    19   10   11 1
    20   11   12 2
    21   11   13 1
    22   13   17 1
    23   13   14 2
    24   14   15 1
    25   14   26 1
    26   15   16 2
    27   15   27 1
    28   16   17 1
    29   16   28 1
    30   18   19 2
@<TRIPOS>MOLECULE
ZINC34955994
   17    18     0     0     0
SMALL
USER_CHARGES

@<TRIPOS>ATOM
      1 C1         -0.0164    1.3605    0.0095 C.2       1 <0>        -0.1081
      2 C2          1.3233    1.7833   -0.0010 C.2       1 <0>        -0.1607
      3 C3          2.0908    0.6709   -0.0143 C.2       1 <0>         0.0133
      4 O1          1.2901   -0.4048   -0.0124 O.3       1 <0>        -0.1256
      5 C4          0.0021   -0.0041    0.0020 C.2       1 <0>         0.0363
      6 C5         -1.1737   -0.8820    0.0085 C.2       1 <0>         0.3745
      7 N1         -1.1576   -2.2004    0.0066 N.2       1 <0>        -0.5102
      8 C6         -2.4056   -2.6705    0.0141 C.2       1 <0>         0.2426
      9 N2         -3.2405   -1.6696    0.0210 N.2       1 <0>        -0.3048
     10 O2         -2.4598   -0.4838    0.0234 O.3       1 <0>        -0.0766
     11 C7         -2.7896   -4.1278    0.0138 C.3       1 <0>         0.0419
     12 Cl1        -2.9312   -4.7123    1.7136 Cl        1 <0>        -0.1296
     13 Br1         3.9815    0.6370   -0.0325 Br        1 <0>         0.0813
     14 H1         -0.8917    1.9931    0.0252 H         1 <0>         0.1789
     15 H2          1.6738    2.8048    0.0008 H         1 <0>         0.1782
     16 H3         -3.7463   -4.2513   -0.4937 H         1 <0>         0.1318
     17 H4         -2.0251   -4.7048   -0.5063 H         1 <0>         0.1367
@<TRIPOS>BOND
     1    1    5 2
     2    1    2 1
     3    1   14 1
     4    2    3 2
     5    2   15 1
     6    3    4 1
     7    3   13 1
     8    4    5 1
     9    5    6 1
    10    6   10 1
    11    6    7 2
    12    7    8 1
    13    8    9 2
    14    8   11 1
    15    9   10 1
    16   11   12 1
    17   11   16 1
    18   11   17 1
@<TRIPOS>MOLECULE
ZINC40634973
   40    41     0     0     0
SMALL
USER_CHARGES

@<TRIPOS>ATOM
      1 C1         -0.5186   -0.3801   -3.2776 C.3       1 <0>        -0.1260
      2 C2         -0.4108   -1.6902   -2.5407 C.ar      1 <0>        -0.0234
      3 C3         -0.7172   -2.8737   -3.1863 C.ar      1 <0>        -0.1479
      4 C4         -0.6184   -4.0753   -2.5104 C.ar      1 <0>        -0.0167
      5 C5         -0.2127   -4.0937   -1.1888 C.ar      1 <0>        -0.6862
      6 C6          0.0945   -2.9106   -0.5437 C.ar      1 <0>         0.0274
      7 C7         -0.0003   -1.7091   -1.2210 C.ar      1 <0>        -0.1453
      8 C8          0.5362   -2.9307    0.8970 C.3       1 <0>        -0.1721
      9 S1         -0.0878   -5.6254   -0.3269 S.o2      1 <0>         2.6906
     10 O1         -0.8338   -5.4779    0.8736 O.2       1 <0>        -0.9502
     11 O2         -0.3634   -6.6481   -1.2742 O.2       1 <0>        -0.9580
     12 N1          1.4963   -5.8082    0.1197 N.pl3     1 <0>        -0.9937
     13 C9          2.5635   -5.8893   -0.8903 C.3       1 <0>         0.1235
     14 H1          3.1790   -4.9908   -0.8469 H         1 <0>         0.0855
     15 C10         3.4248   -7.1203   -0.5857 C.3       1 <0>         0.0542
     16 O3          3.8452   -7.0744    0.7799 O.3       1 <0>        -0.3752
     17 C11         2.7731   -7.1246    1.7243 C.3       1 <0>         0.0530
     18 C12         1.8790   -5.8882    1.5383 C.3       1 <0>         0.1163
     19 H2          2.4268   -4.9895    1.8220 H         1 <0>         0.0879
     20 C13         0.6245   -6.0225    2.4037 C.3       1 <0>        -0.1772
     21 C14         1.9454   -6.0238   -2.2834 C.3       1 <0>        -0.2128
     22 H3          0.4325   -0.1556   -3.7605 H         1 <0>         0.0801
     23 H4         -1.3016   -0.4512   -4.0325 H         1 <0>         0.0740
     24 H5         -0.7645    0.4141   -2.5727 H         1 <0>         0.0732
     25 H6         -1.0341   -2.8593   -4.2187 H         1 <0>         0.1334
     26 H7         -0.8584   -4.9997   -3.0146 H         1 <0>         0.1436
     27 H8          0.2434   -0.7849   -0.7180 H         1 <0>         0.1319
     28 H9          1.6250   -2.9525    0.9429 H         1 <0>         0.0864
     29 H10         0.1691   -2.0373    1.4021 H         1 <0>         0.0863
     30 H11         0.1340   -3.8168    1.3880 H         1 <0>         0.0983
     31 H12         2.8408   -8.0246   -0.7567 H         1 <0>         0.0621
     32 H13         4.2995   -7.1225   -1.2361 H         1 <0>         0.1072
     33 H14         2.1868   -8.0289    1.5618 H         1 <0>         0.0594
     34 H15         3.1790   -7.1299    2.7359 H         1 <0>         0.1087
     35 H16        -0.0258   -6.7902    1.9842 H         1 <0>         0.0728
     36 H17         0.9106   -6.3030    3.4174 H         1 <0>         0.0686
     37 H18         0.0948   -5.0702    2.4260 H         1 <0>         0.1027
     38 H19         1.2728   -5.1855   -2.4649 H         1 <0>         0.0695
     39 H20         2.7364   -6.0240   -3.0333 H         1 <0>         0.0874
     40 H21         1.3867   -6.9577   -2.3444 H         1 <0>         0.1006
@<TRIPOS>BOND
     1    1    2 1
     2    1   22 1
     3    1   23 1
     4    1   24 1
     5    2    7 ar
     6    2    3 ar
     7    3    4 ar
     8    3   25 1
     9    4    5 ar
    10    4   26 1
    11    5    6 ar
    12    5    9 1
    13    6    7 ar
    14    6    8 1
    15    7   27 1
    16    8   28 1
    17    8   29 1
    18    8   30 1
    19    9   10 2
    20    9   11 2
    21    9   12 1
    22   12   18 1
    23   12   13 1
    24   13   14 1
    25   13   15 1
    26   13   21 1
    27   15   16 1
    28   15   31 1
    29   15   32 1
    30   16   17 1
    31   17   18 1
    32   17   33 1
    33   17   34 1
    34   18   19 1
    35   18   20 1
    36   20   35 1
    37   20   36 1
    38   20   37 1
    39   21   38 1
    40   21   39 1
    41   21   40 1
@<TRIPOS>MOLECULE
ZINC50131555
   39    40     0     0     0
SMALL
USER_CHARGES

@<TRIPOS>ATOM
      1 C1          0.0312    1.5067   -0.0747 C.3       1 <0>        -0.1296
      2 C2          0.0717    0.0007   -0.1091 C.ar      1 <0>         0.0287
      3 C3         -0.0916   -0.6702   -1.3044 C.ar      1 <0>        -0.1536
      4 C4         -0.0542   -2.0540   -1.3341 C.ar      1 <0>        -0.0380
      5 C5          0.1455   -2.7796   -0.1742 C.ar      1 <0>        -0.1232
      6 C6          0.3116   -2.1254    1.0391 C.ar      1 <0>         0.2017
      7 C7          0.2799   -0.7213    1.0655 C.ar      1 <0>        -0.2365
      8 C8          0.4899   -0.3215    2.4693 C.2       1 <0>         0.3949
      9 O1          0.5267    0.8043    2.9209 O.2       1 <0>        -0.3673
     10 C9          0.6474   -1.6126    3.2164 C.2       1 <0>         0.4948
     11 O2          0.8390   -1.7326    4.4083 O.2       1 <0>        -0.4454
     12 N1          0.5229   -2.6127    2.3268 N.am      1 <0>        -0.5345
     13 C10         0.6168   -4.0349    2.6658 C.3       1 <0>         0.0492
     14 C11        -0.7615   -4.5773    2.9434 C.2       1 <0>         0.3454
     15 O3         -1.7231   -3.8508    2.8660 O.2       1 <0>        -0.4258
     16 C12        -0.9399   -6.0262    3.3174 C.3       1 <0>        -0.1103
     17 C13        -2.4251   -6.3152    3.5441 C.3       1 <0>        -0.1356
     18 C14        -0.4144   -6.9132    2.1869 C.3       1 <0>        -0.1446
     19 C15        -0.1612   -6.3211    4.6010 C.3       1 <0>        -0.1436
     20 C16         0.1826   -4.2853   -0.2271 C.3       1 <0>        -0.1238
     21 H1          1.0360    1.9008   -0.2273 H         1 <0>         0.0840
     22 H2         -0.6256    1.8707   -0.8648 H         1 <0>         0.0781
     23 H3         -0.3460    1.8381    0.8927 H         1 <0>         0.0788
     24 H4         -0.2491   -0.1152   -2.2174 H         1 <0>         0.1401
     25 H5         -0.1827   -2.5720   -2.2730 H         1 <0>         0.1405
     26 H6          1.0601   -4.5787    1.8316 H         1 <0>         0.1322
     27 H7          1.2404   -4.1569    3.5514 H         1 <0>         0.1298
     28 H8         -2.9799   -6.1051    2.6296 H         1 <0>         0.0618
     29 H9         -2.5542   -7.3632    3.8146 H         1 <0>         0.0670
     30 H10        -2.7995   -5.6833    4.3495 H         1 <0>         0.0617
     31 H11         0.6437   -6.7072    2.0255 H         1 <0>         0.0641
     32 H12        -0.5434   -7.9611    2.4575 H         1 <0>         0.0755
     33 H13        -0.9691   -6.7031    1.2725 H         1 <0>         0.0633
     34 H14        -0.5356   -5.6892    5.4064 H         1 <0>         0.0629
     35 H15        -0.2903   -7.3691    4.8716 H         1 <0>         0.0746
     36 H16         0.8969   -6.1151    4.4395 H         1 <0>         0.0642
     37 H17         1.2178   -4.6214   -0.2856 H         1 <0>         0.0770
     38 H18        -0.2812   -4.6919    0.6716 H         1 <0>         0.0628
     39 H19        -0.3620   -4.6315   -1.1055 H         1 <0>         0.0791
@<TRIPOS>BOND
     1    1    2 1
     2    1   21 1
     3    1   22 1
     4    1   23 1
     5    2    7 ar
     6    2    3 ar
     7    3    4 ar
     8    3   24 1
     9    4    5 ar
    10    4   25 1
    11    5    6 ar
    12    5   20 1
    13    6   12 1
    14    6    7 ar
    15    7    8 1
    16    8    9 2
    17    8   10 1
    18   10   11 2
    19   10   12 am
    20   12   13 1
    21   13   14 1
    22   13   26 1
    23   13   27 1
    24   14   15 2
    25   14   16 1
    26   16   17 1
    27   16   18 1
    28   16   19 1
    29   17   28 1
    30   17   29 1
    31   17   30 1
    32   18   31 1
    33   18   32 1
    34   18   33 1
    35   19   34 1
    36   19   35 1
    37   19   36 1
    38   20   37 1
    39   20   38 1
    40   20   39 1
@<TRIPOS>MOLECULE
ZINC62791604
   31    32     0     0     0
SMALL
USER_CHARGES

@<TRIPOS>ATOM
      1 C1         -0.0173    1.4248    0.0099 C.3       1 <0>         0.0337
      2 O1          0.0021   -0.0041    0.0020 O.3       1 <0>        -0.3542
      3 C2         -1.1855   -0.6297    0.0100 C.2       1 <0>         0.4410
      4 O2         -2.2076    0.0145    0.0232 O.2       1 <0>        -0.4954
      5 C3         -1.2439   -2.1355    0.0025 C.3       1 <0>         0.1728
      6 H1         -0.7270   -2.5308    0.8769 H         1 <0>         0.1030
      7 C4         -0.5894   -2.6797   -1.2848 C.3       1 <0>        -0.1154
      8 C5         -1.5032   -3.8761   -1.6603 C.3       1 <0>        -0.1313
      9 C6         -2.8957   -3.3507   -1.2304 C.3       1 <0>         0.1310
     10 N1         -2.6449   -2.5815    0.0058 N.pl3     1 <0>        -0.6615
     11 C7         -3.5770   -2.3215    1.0072 C.ar      1 <0>         0.2180
     12 C8         -4.3701   -1.1802    0.9380 C.ar      1 <0>        -0.0866
     13 C9         -5.2929   -0.9201    1.9258 C.ar      1 <0>        -0.0668
     14 C10        -5.4333   -1.8040    2.9999 C.ar      1 <0>        -0.0144
     15 C11        -4.6353   -2.9499    3.0672 C.ar      1 <0>        -0.0664
     16 C12        -3.7174   -3.2071    2.0726 C.ar      1 <0>        -0.0438
     17 Cl1        -2.7306   -4.6332    2.1508 Cl        1 <0>        -0.0488
     18 C13        -6.3920   -1.5359    4.0293 C.1       1 <0>         0.2513
     19 N2         -7.1526   -1.3231    4.8458 N.1       1 <0>        -0.4044
     20 H2          1.0053    1.8021    0.0021 H         1 <0>         0.1021
     21 H3         -0.5445    1.7859   -0.8732 H         1 <0>         0.0600
     22 H4         -0.5275    1.7763    0.9067 H         1 <0>         0.0597
     23 H5         -0.5994   -1.9251   -2.0712 H         1 <0>         0.0799
     24 H6          0.4275   -3.0185   -1.0868 H         1 <0>         0.0958
     25 H7         -1.4726   -4.0697   -2.7325 H         1 <0>         0.0876
     26 H8         -1.2309   -4.7680   -1.0959 H         1 <0>         0.0818
     27 H9         -3.3123   -2.7043   -2.0029 H         1 <0>         0.0571
     28 H10        -3.5692   -4.1834   -1.0274 H         1 <0>         0.0727
     29 H11        -4.2612   -0.4974    0.1083 H         1 <0>         0.1559
     30 H12        -5.9077   -0.0339    1.8713 H         1 <0>         0.1405
     31 H13        -4.7409   -3.6345    3.8957 H         1 <0>         0.1450
@<TRIPOS>BOND
     1    1    2 1
     2    1   20 1
     3    1   21 1
     4    1   22 1
     5    2    3 1
     6    3    4 2
     7    3    5 1
     8    5    6 1
     9    5   10 1
    10    5    7 1
    11    7    8 1
    12    7   23 1
    13    7   24 1
    14    8    9 1
    15    8   25 1
    16    8   26 1
    17    9   10 1
    18    9   27 1
    19    9   28 1
    20   10   11 1
    21   11   16 ar
    22   11   12 ar
    23   12   13 ar
    24   12   29 1
    25   13   14 ar
    26   13   30 1
    27   14   15 ar
    28   14   18 1
    29   15   16 ar
    30   15   31 1
    31   16   17 1
    32   18   19 3
@<TRIPOS>MOLECULE
ZINC19345581
   57    61     0     0     0
SMALL
USER_CHARGES
(4S)-6-chloro-1'-[(2R)-2-(2,3-dihydro-1,4-benzodioxin-6-yl)-2-hydroxy-ethyl]spiro[chroman-2,4'-piperidine]-4-ol
@<TRIPOS>ATOM
      1 C1          2.8039    1.8935   -1.0969 C.ar      1 <0>        -0.0785
      2 C2          1.6515    2.6482   -0.9819 C.ar      1 <0>        -0.1157
      3 C3          0.6621    2.5573   -1.9491 C.ar      1 <0>         0.0751
      4 C4          0.8337    1.7075   -3.0358 C.ar      1 <0>         0.0540
      5 C5          1.9916    0.9524   -3.1446 C.ar      1 <0>        -0.0976
      6 C6          2.9732    1.0463   -2.1757 C.ar      1 <0>        -0.1118
      7 C7          4.2302    0.2238   -2.2963 C.3       1 <0>         0.1523
      8 H1          4.4563    0.0205   -3.3534 H         1 <0>         0.0887
      9 C8          4.0730   -1.0686   -1.4925 C.3       1 <0>        -0.0377
     10 N1          5.3040   -1.8634   -1.5976 N.4       1 <0>        -0.3960
     11 C9          5.2884   -2.9855   -0.6505 C.3       1 <0>         0.0008
     12 C10         6.6414   -3.7004   -0.6828 C.3       1 <0>        -0.1753
     13 C11         6.9130   -4.2056   -2.1007 C.3       1 <0>         0.1149
     14 C12         6.8706   -3.0288   -3.0771 C.3       1 <0>        -0.1301
     15 C13         5.5116   -2.3325   -2.9736 C.3       1 <0>        -0.0131
     16 C14         8.2959   -4.8641   -2.1539 C.3       1 <0>        -0.1416
     17 C15         8.3456   -5.9663   -1.0926 C.3       1 <0>         0.1633
     18 H2          8.4335   -5.5486   -0.0788 H         1 <0>         0.0708
     19 C16         7.1134   -6.8287   -1.1989 C.ar      1 <0>        -0.1823
     20 C17         7.1241   -8.0811   -0.6073 C.ar      1 <0>        -0.0683
     21 C18         6.0097   -8.8954   -0.6784 C.ar      1 <0>        -0.0563
     22 C19         4.8771   -8.4599   -1.3436 C.ar      1 <0>        -0.0697
     23 C20         4.8627   -7.2141   -1.9361 C.ar      1 <0>        -0.1312
     24 C21         5.9831   -6.3921   -1.8670 C.ar      1 <0>         0.1333
     25 O1          5.9314   -5.1737   -2.4665 O.3       1 <0>        -0.3037
     26 Cl1         6.0309  -10.4637    0.0658 Cl        1 <0>        -0.0505
     27 O2          9.5085   -6.7713   -1.2969 O.3       1 <0>        -0.5838
     28 O3          5.3379    0.9694   -1.7874 O.3       1 <0>        -0.5685
     29 O4         -0.1212    1.6093   -4.0007 O.3       1 <0>        -0.3052
     30 C22        -1.4255    2.0965   -3.6672 C.3       1 <0>         0.0166
     31 C23        -1.2695    3.4674   -2.9952 C.3       1 <0>         0.0156
     32 O5         -0.4708    3.3002   -1.8181 O.3       1 <0>        -0.3011
     33 H3          3.5732    1.9657   -0.3423 H         1 <0>         0.1395
     34 H4          1.5215    3.3091   -0.1377 H         1 <0>         0.1430
     35 H5          2.1264    0.2898   -3.9867 H         1 <0>         0.1373
     36 H6          3.8839   -0.8232   -0.4370 H         1 <0>         0.1439
     37 H7          3.2273   -1.6479   -1.8914 H         1 <0>         0.1408
     38 H8          5.0987   -2.6061    0.3644 H         1 <0>         0.1373
     39 H9          4.4939   -3.6921   -0.9322 H         1 <0>         0.1330
     40 H10         7.4341   -2.9987   -0.3839 H         1 <0>         0.1104
     41 H11         6.6232   -4.5514    0.0140 H         1 <0>         0.1197
     42 H12         7.6694   -2.3153   -2.8263 H         1 <0>         0.1140
     43 H13         7.0175   -3.3979   -4.1029 H         1 <0>         0.1283
     44 H14         4.7152   -3.0418   -3.2432 H         1 <0>         0.1391
     45 H15         5.4865   -1.4743   -3.6613 H         1 <0>         0.1372
     46 H16         8.4586   -5.2951   -3.1528 H         1 <0>         0.1003
     47 H17         9.0696   -4.1093   -1.9498 H         1 <0>         0.1004
     48 H18         8.0073   -8.4228   -0.0881 H         1 <0>         0.1378
     49 H19         4.0052   -9.0949   -1.3993 H         1 <0>         0.1468
     50 H20         3.9782   -6.8754   -2.4552 H         1 <0>         0.1425
     51 H21         9.7152   -7.6190   -0.6271 H         1 <0>         0.4189
     52 H22         6.3460    0.5292   -1.7923 H         1 <0>         0.4011
     53 H23        -2.0268    2.1914   -4.5834 H         1 <0>         0.1316
     54 H24        -1.9151    1.3921   -2.9787 H         1 <0>         0.0831
     55 H25        -0.7769    4.1628   -3.6908 H         1 <0>         0.0855
     56 H26        -2.2617    3.8591   -2.7265 H         1 <0>         0.1328
     57 H27         6.1515   -1.2138   -1.3335 H         1 <0>         0.4286
@<TRIPOS>BOND
     1    1    6 ar
     2    1    2 ar
     3    1   33 1
     4    2    3 ar
     5    2   34 1
     6    3   32 1
     7    3    4 ar
     8    4    5 ar
     9    4   29 1
    10    5    6 ar
    11    5   35 1
    12    6    7 1
    13    7    8 1
    14    7    9 1
    15    7   28 1
    16    9   10 1
    17    9   36 1
    18    9   37 1
    19   10   15 1
    20   10   11 1
    21   10   57 1
    22   11   12 1
    23   11   38 1
    24   11   39 1
    25   12   13 1
    26   12   40 1
    27   12   41 1
    28   13   25 1
    29   13   14 1
    30   13   16 1
    31   14   15 1
    32   14   42 1
    33   14   43 1
    34   15   44 1
    35   15   45 1
    36   16   17 1
    37   16   46 1
    38   16   47 1
    39   17   18 1
    40   17   19 1
    41   17   27 1
    42   19   24 ar
    43   19   20 ar
    44   20   21 ar
    45   20   48 1
    46   21   22 ar
    47   21   26 1
    48   22   23 ar
    49   22   49 1
    50   23   24 ar
    51   23   50 1
    52   24   25 1
    53   27   51 1
    54   28   52 1
    55   29   30 1
    56   30   31 1
    57   30   53 1
    58   30   54 1
    59   31   32 1
    60   31   55 1
    61   31   56 1
@<TRIPOS>MOLECULE
ZINC32818808
   55    59     0     0     0
SMALL
USER_CHARGES
(2R,9S)-2-(2-chlorophenyl)-9-(4-dimethylaminophenyl)-2,4,5,6,7,9-hexahydro-1H-[1,2,4]triazolo[5,1-b]quinazolin-8-one
@<TRIPOS>ATOM
      1 C1          0.9741   -0.7376   -0.3633 C.3       1 <0>         0.0784
      2 N1         -0.2867    0.0008   -0.2569 N.pl3     1 <0>        -0.6277
      3 C2         -1.5571   -0.7253   -0.1857 C.3       1 <0>         0.0810
      4 C3         -0.2776    1.3971   -0.2234 C.ar      1 <0>         0.2427
      5 C4         -1.4725    2.0990   -0.1284 C.ar      1 <0>        -0.2019
      6 C5         -1.4596    3.4795   -0.0912 C.ar      1 <0>        -0.0492
      7 C6         -0.2595    4.1633   -0.1581 C.ar      1 <0>        -0.2043
      8 C7          0.9316    3.4678   -0.2580 C.ar      1 <0>        -0.0179
      9 C8          0.9261    2.0872   -0.2909 C.ar      1 <0>        -0.1998
     10 C9         -0.2496    5.6699   -0.1225 C.3       1 <0>         0.2808
     11 H1          0.7333    6.0401    0.2044 H         1 <0>         0.1310
     12 C10        -0.5802    6.2071   -1.4977 C.2       1 <0>        -0.2544
     13 C11        -1.7615    6.7910   -1.7804 C.2       1 <0>         0.2166
     14 C12        -2.0891    7.2152   -3.1949 C.3       1 <0>        -0.0994
     15 C13        -0.8145    7.6960   -3.8909 C.3       1 <0>        -0.1161
     16 C14         0.1961    6.5447   -3.8961 C.3       1 <0>        -0.1697
     17 C15         0.4140    6.0739   -2.4863 C.2       1 <0>         0.4077
     18 O1          1.4767    5.5639   -2.1909 O.2       1 <0>        -0.4436
     19 N2         -2.7165    7.0334   -0.8221 N.pl3     1 <0>        -0.6244
     20 C16        -2.4888    6.5958    0.4716 C.cat     1 <0>         0.6764
     21 N3         -3.3036    6.6111    1.4748 N.pl3     1 <0>        -0.6454
     22 C17        -2.5449    6.1950    2.6689 C.3       1 <0>         0.3214
     23 H2         -2.7091    6.8690    3.5226 H         1 <0>         0.1790
     24 N4         -1.1358    6.1967    2.2055 N.3       1 <0>        -0.3861
     25 N5         -1.2381    6.1388    0.8463 N.pl3     1 <0>        -0.4321
     26 C18        -2.9607    4.8142    3.1067 C.ar      1 <0>        -0.1593
     27 C19        -2.0219    3.9406    3.6227 C.ar      1 <0>        -0.0898
     28 C20        -2.4032    2.6742    4.0245 C.ar      1 <0>        -0.0889
     29 C21        -3.7237    2.2806    3.9108 C.ar      1 <0>        -0.0805
     30 C22        -4.6631    3.1529    3.3946 C.ar      1 <0>        -0.0942
     31 C23        -4.2830    4.4228    2.9974 C.ar      1 <0>        -0.0146
     32 Cl1        -5.4640    5.5221    2.3567 Cl        1 <0>        -0.0548
     33 H3          1.8128   -0.0270   -0.4046 H         1 <0>         0.0827
     34 H4          0.9653   -1.3481   -1.2783 H         1 <0>         0.0628
     35 H5          1.0908   -1.3920    0.5131 H         1 <0>         0.0625
     36 H6         -2.3864   -0.0066   -0.1100 H         1 <0>         0.0771
     37 H7         -1.5566   -1.3792    0.6989 H         1 <0>         0.0616
     38 H8         -1.6821   -1.3353   -1.0925 H         1 <0>         0.0623
     39 H9         -2.4104    1.5657   -0.0800 H         1 <0>         0.1254
     40 H10        -2.3880    4.0257   -0.0136 H         1 <0>         0.0956
     41 H11         1.8671    4.0049   -0.3100 H         1 <0>         0.1355
     42 H12         1.8567    1.5446   -0.3693 H         1 <0>         0.1338
     43 H13        -2.5080    6.3605   -3.7463 H         1 <0>         0.1155
     44 H14        -2.8249    8.0326   -3.1715 H         1 <0>         0.1019
     45 H15        -1.0506    7.9946   -4.9229 H         1 <0>         0.1008
     46 H16        -0.4014    8.5573   -3.3454 H         1 <0>         0.0816
     47 H17        -0.1944    5.7168   -4.5060 H         1 <0>         0.1110
     48 H18         1.1487    6.8949   -4.3202 H         1 <0>         0.1112
     49 H19        -3.6410    7.5662   -1.0893 H         1 <0>         0.4817
     50 H20        -0.6360    5.3972    2.5648 H         1 <0>         0.3789
     51 H21        -0.9904    4.2476    3.7121 H         1 <0>         0.1381
     52 H22        -1.6695    1.9921    4.4280 H         1 <0>         0.1439
     53 H23        -4.0212    1.2912    4.2256 H         1 <0>         0.1464
     54 H24        -5.6946    2.8454    3.3062 H         1 <0>         0.1466
     55 H25        -4.3537    6.9030    1.3261 H         1 <0>         0.4820
@<TRIPOS>BOND
     1    1    2 1
     2    1   33 1
     3    1   34 1
     4    1   35 1
     5    2    3 1
     6    2    4 1
     7    3   36 1
     8    3   37 1
     9    3   38 1
    10    4    9 ar
    11    4    5 ar
    12    5    6 ar
    13    5   39 1
    14    6    7 ar
    15    6   40 1
    16    7    8 ar
    17    7   10 1
    18    8    9 ar
    19    8   41 1
    20    9   42 1
    21   10   11 1
    22   10   25 1
    23   10   12 1
    24   12   17 1
    25   12   13 2
    26   13   14 1
    27   13   19 1
    28   14   15 1
    29   14   43 1
    30   14   44 1
    31   15   16 1
    32   15   45 1
    33   15   46 1
    34   16   17 1
    35   16   47 1
    36   16   48 1
    37   17   18 2
    38   19   20 1
    39   19   49 1
    40   20   25 1
    41   20   21 2
    42   21   22 1
    43   21   55 1
    44   22   23 1
    45   22   24 1
    46   22   26 1
    47   24   25 1
    48   24   50 1
    49   26   31 ar
    50   26   27 ar
    51   27   28 ar
    52   27   51 1
    53   28   29 ar
    54   28   52 1
    55   29   30 ar
    56   29   53 1
    57   30   31 ar
    58   30   54 1
    59   31   32 1
@<TRIPOS>MOLECULE
ZINC20548963
   54    57     0     0     0
SMALL
USER_CHARGES

@<TRIPOS>ATOM
      1 C1          0.3210    1.8260    0.1094 C.3       1 <0>        -0.1530
      2 C2          0.2172    0.3000    0.1445 C.3       1 <0>        -0.1198
      3 C3          0.9812   -0.2354    1.3572 C.3       1 <0>        -0.1355
      4 C4          0.8774   -1.7615    1.3923 C.3       1 <0>         0.0982
      5 N1          1.6090   -2.2741    2.5535 N.am      1 <0>        -0.5687
      6 C5          2.9059   -2.5999    2.5055 C.2       1 <0>         0.5275
      7 O1          3.6141   -2.5127    1.5256 O.2       1 <0>        -0.4554
      8 C6          3.3509   -3.0931    3.8640 C.3       1 <0>        -0.1207
      9 H1          4.1800   -2.5145    4.2714 H         1 <0>         0.1480
     10 C7          3.6639   -4.6024    3.7768 C.3       1 <0>         0.0849
     11 H2          3.2485   -5.0237    2.8614 H         1 <0>         0.0684
     12 N2          3.0018   -5.1980    4.9676 N.3       1 <0>        -0.6146
     13 C8          1.7312   -4.4580    5.0821 C.3       1 <0>         0.1290
     14 C9          2.0600   -2.9877    4.7231 C.3       1 <0>        -0.1058
     15 H3          2.1875   -2.3517    5.5992 H         1 <0>         0.1498
     16 C10         1.0362   -2.4494    3.7499 C.2       1 <0>         0.5369
     17 O2         -0.1240   -2.2155    4.0119 O.2       1 <0>        -0.4575
     18 C11         0.6758   -5.0328    4.1807 C.ar      1 <0>        -0.1803
     19 C12         0.5917   -5.2209    2.8189 C.ar      1 <0>        -0.0555
     20 C13        -0.5402   -5.7939    2.2670 C.ar      1 <0>        -0.1242
     21 C14        -1.5871   -6.1767    3.0857 C.ar      1 <0>        -0.0591
     22 C15        -1.5082   -5.9896    4.4510 C.ar      1 <0>        -0.0562
     23 C16        -0.3708   -5.4134    5.0146 C.ar      1 <0>         0.1845
     24 N3         -0.0575   -5.1252    6.3453 N.am      1 <0>        -0.6556
     25 C17         1.1600   -4.5626    6.4700 C.2       1 <0>         0.5568
     26 O3          1.6924   -4.2091    7.5009 O.2       1 <0>        -0.4596
     27 Cl1        -2.8285   -6.4738    5.4689 Cl        1 <0>        -0.0554
     28 C18         5.1749   -4.8368    3.8319 C.3       1 <0>        -0.1000
     29 C19         5.8294   -4.2401    2.5844 C.3       1 <0>        -0.1009
     30 C20         7.3510   -4.3406    2.7091 C.3       1 <0>        -0.1464
     31 C21         5.3670   -5.0122    1.3470 C.3       1 <0>        -0.1416
     32 H4          1.3688    2.1173    0.0362 H         1 <0>         0.0550
     33 H5         -0.2233    2.2074   -0.7546 H         1 <0>         0.0578
     34 H6         -0.1085    2.2405    1.0214 H         1 <0>         0.0546
     35 H7         -0.8306    0.0087    0.2177 H         1 <0>         0.0657
     36 H8          0.6467   -0.1145   -0.7675 H         1 <0>         0.0662
     37 H9          2.0290    0.0559    1.2840 H         1 <0>         0.0699
     38 H10         0.5517    0.1791    2.2692 H         1 <0>         0.0686
     39 H11        -0.1704   -2.0528    1.4655 H         1 <0>         0.0955
     40 H12         1.3069   -2.1760    0.4803 H         1 <0>         0.0967
     41 H13         2.8351   -6.1840    4.8333 H         1 <0>         0.3574
     42 H14         1.4102   -4.9210    2.1813 H         1 <0>         0.1253
     43 H15        -0.6062   -5.9418    1.1992 H         1 <0>         0.1441
     44 H16        -2.4707   -6.6237    2.6547 H         1 <0>         0.1476
     45 H17        -0.6484   -5.3084    7.0925 H         1 <0>         0.4219
     46 H18         5.5846   -4.3583    4.7214 H         1 <0>         0.0805
     47 H19         5.3752   -5.9076    3.8705 H         1 <0>         0.0736
     48 H20         5.5411   -3.1934    2.4882 H         1 <0>         0.0824
     49 H21         7.6393   -5.3874    2.8053 H         1 <0>         0.0537
     50 H22         7.8173   -3.9155    1.8203 H         1 <0>         0.0557
     51 H23         7.6804   -3.7906    3.5906 H         1 <0>         0.0548
     52 H24         4.2977   -4.8591    1.2018 H         1 <0>         0.0497
     53 H25         5.9077   -4.6528    0.4715 H         1 <0>         0.0555
     54 H26         5.5663   -6.0748    1.4863 H         1 <0>         0.0498
@<TRIPOS>BOND
     1    1    2 1
     2    1   32 1
     3    1   33 1
     4    1   34 1
     5    2    3 1
     6    2   35 1
     7    2   36 1
     8    3    4 1
     9    3   37 1
    10    3   38 1
    11    4    5 1
    12    4   39 1
    13    4   40 1
    14    5   16 am
    15    5    6 am
    16    6    7 2
    17    6    8 1
    18    8    9 1
    19    8   14 1
    20    8   10 1
    21   10   11 1
    22   10   12 1
    23   10   28 1
    24   12   13 1
    25   12   41 1
    26   13   25 1
    27   13   14 1
    28   13   18 1
    29   14   15 1
    30   14   16 1
    31   16   17 2
    32   18   23 ar
    33   18   19 ar
    34   19   20 ar
    35   19   42 1
    36   20   21 ar
    37   20   43 1
    38   21   22 ar
    39   21   44 1
    40   22   23 ar
    41   22   27 1
    42   23   24 1
    43   24   25 am
    44   24   45 1
    45   25   26 2
    46   28   29 1
    47   28   46 1
    48   28   47 1
    49   29   30 1
    50   29   31 1
    51   29   48 1
    52   30   49 1
    53   30   50 1
    54   30   51 1
    55   31   52 1
    56   31   53 1
    57   31   54 1
@<TRIPOS>MOLECULE
ZINC64519724
   57    61     0     0     0
SMALL
USER_CHARGES

@<TRIPOS>ATOM
      1 C1         -0.0181    1.5028    0.0097 C.3       1 <0>        -0.1251
      2 C2          0.0023   -0.0041    0.0014 C.ar      1 <0>        -0.0622
      3 C3          0.8018   -0.6771   -0.9059 C.ar      1 <0>        -0.1169
      4 C4          0.8257   -2.0560   -0.9187 C.ar      1 <0>        -0.0938
      5 C5          0.0406   -2.7732   -0.0133 C.ar      1 <0>        -0.0846
      6 C6         -0.7637   -2.0877    0.8994 C.ar      1 <0>        -0.0794
      7 C7         -0.7739   -0.7082    0.9046 C.ar      1 <0>        -0.0841
      8 C8         -1.6365    0.0335    1.8930 C.3       1 <0>        -0.1210
      9 C9          0.0606   -4.2501   -0.0214 C.2       1 <0>         0.2725
     10 C10         0.1716   -4.9976    1.1277 C.2       1 <0>        -0.2793
     11 C11         0.1937   -6.4016    1.0395 C.2       1 <0>         0.2149
     12 N1          0.3603   -7.0467   -0.0769 N.2       1 <0>        -0.5556
     13 C12         0.6009   -6.3200   -1.3250 C.3       1 <0>         0.3623
     14 H1          1.6673   -6.2344   -1.5336 H         1 <0>         0.0857
     15 N2         -0.0364   -4.9898   -1.1814 N.pl3     1 <0>        -0.4550
     16 N3         -0.7364   -4.7649   -2.3588 N.pl3     1 <0>        -0.4993
     17 C13        -0.9076   -5.9451   -3.0243 C.2       1 <0>         0.2389
     18 C14        -0.1376   -6.9466   -2.4839 C.2       1 <0>        -0.3542
     19 H2         -1.0557   -3.9008   -2.6626 H         1 <0>         0.4404
     20 C15        -0.0608   -8.2950   -2.9040 C.2       1 <0>         0.6181
     21 O1         -0.7131   -8.6728   -3.8605 O.2       1 <0>        -0.5648
     22 N4          0.7341   -9.1617   -2.2457 N.am      1 <0>        -0.7306
     23 C16         0.8136  -10.5583   -2.6808 C.3       1 <0>         0.1319
     24 C17         1.7785  -11.3217   -1.7714 C.3       1 <0>        -0.1064
     25 C18         1.8603  -12.7584   -2.2190 C.2       1 <0>         0.0786
     26 C19         2.7852  -13.3021   -3.0426 C.ar      1 <0>        -0.1721
     27 C20         3.9466  -12.7401   -3.7424 C.ar      1 <0>        -0.0084
     28 C21         4.7027  -13.5521   -4.5156 C.ar      1 <0>        -0.1539
     29 C22         4.4054  -14.9137   -4.6655 C.ar      1 <0>         0.0543
     30 C23         3.3555  -15.5024   -4.0546 C.ar      1 <0>        -0.2106
     31 C24         2.4930  -14.7428   -3.2169 C.ar      1 <0>         0.3273
     32 N5          1.4289  -15.0768   -2.5279 N.pl3     1 <0>        -0.5867
     33 C25         0.9287  -13.8854   -1.8329 C.3       1 <0>         0.0596
     34 H3          0.7537    1.8729    0.6845 H         1 <0>         0.0779
     35 H4          0.1712    1.8743   -0.9974 H         1 <0>         0.0708
     36 H5         -0.9940    1.8511    0.3480 H         1 <0>         0.0740
     37 H6          1.4081   -0.1212   -1.6058 H         1 <0>         0.1299
     38 H7          1.4497   -2.5799   -1.6276 H         1 <0>         0.1221
     39 H8         -1.3732   -2.6362    1.6023 H         1 <0>         0.1316
     40 H9         -2.6213    0.2055    1.4585 H         1 <0>         0.0745
     41 H10        -1.7390   -0.5590    2.8021 H         1 <0>         0.0707
     42 H11        -1.1733    0.9904    2.1333 H         1 <0>         0.0740
     43 H12         0.2415   -4.5111    2.0894 H         1 <0>         0.1467
     44 H13         0.0659   -6.9734    1.9467 H         1 <0>         0.1556
     45 H14        -1.5544   -6.0722   -3.8798 H         1 <0>         0.1944
     46 H15         1.2536   -8.8607   -1.4838 H         1 <0>         0.4102
     47 H16        -0.1753  -11.0132   -2.6246 H         1 <0>         0.0739
     48 H17         1.1742  -10.5987   -3.7086 H         1 <0>         0.0748
     49 H18         2.7675  -10.8668   -1.8276 H         1 <0>         0.1148
     50 H19         1.4179  -11.2813   -0.7436 H         1 <0>         0.1201
     51 H20         4.1934  -11.6935   -3.6416 H         1 <0>         0.1606
     52 H21         5.5577  -13.1407   -5.0314 H         1 <0>         0.1572
     53 H22         5.0424  -15.5164   -5.2959 H         1 <0>         0.1601
     54 H23         3.1692  -16.5558   -4.2031 H         1 <0>         0.1598
     55 H24         0.9523  -14.0396   -0.7541 H         1 <0>         0.1753
     56 H25        -0.0871  -13.6616   -2.1589 H         1 <0>         0.1750
     57 H26         1.0396  -15.9641   -2.4820 H         1 <0>         0.4554
@<TRIPOS>BOND
     1    1    2 1
     2    1   34 1
     3    1   35 1
     4    1   36 1
     5    2    7 ar
     6    2    3 ar
     7    3    4 ar
     8    3   37 1
     9    4    5 ar
    10    4   38 1
    11    5    6 ar
    12    5    9 1
    13    6    7 ar
    14    6   39 1
    15    7    8 1
    16    8   40 1
    17    8   41 1
    18    8   42 1
    19    9   15 1
    20    9   10 2
    21   10   11 1
    22   10   43 1
    23   11   12 2
    24   11   44 1
    25   12   13 1
    26   13   14 1
    27   13   15 1
    28   13   18 1
    29   15   16 1
    30   16   17 1
    31   16   19 1
    32   17   18 2
    33   17   45 1
    34   18   20 1
    35   20   21 2
    36   20   22 am
    37   22   23 1
    38   22   46 1
    39   23   24 1
    40   23   47 1
    41   23   48 1
    42   24   25 1
    43   24   49 1
    44   24   50 1
    45   25   33 1
    46   25   26 2
    47   26   31 ar
    48   26   27 ar
    49   27   28 ar
    50   27   51 1
    51   28   29 ar
    52   28   52 1
    53   29   30 ar
    54   29   53 1
    55   30   31 ar
    56   30   54 1
    57   31   32 2
    58   32   33 1
    59   32   57 1
    60   33   55 1
    61   33   56 1
@<TRIPOS>MOLECULE
ZINC67298667
   48    51     0     0     0
SMALL
USER_CHARGES

@<TRIPOS>ATOM
      1 C1         -0.2443    1.1882    1.5354 C.ar      1 <0>        -0.0028
      2 C2          0.8902    1.7992    1.9835 C.ar      1 <0>        -0.1511
      3 C3          2.1084    1.1226    1.9729 C.ar      1 <0>         0.2197
      4 C4          2.1865   -0.1769    1.4939 C.ar      1 <0>        -0.1552
      5 C5          1.0461   -0.8095    1.0296 C.ar      1 <0>         0.1548
      6 C6         -0.1896   -0.1335    1.0700 C.ar      1 <0>        -0.1851
      7 C7         -1.3684   -0.7914    0.6349 C.2       1 <0>         0.1321
      8 C8         -1.3023   -2.1532    0.3777 C.2       1 <0>        -0.2691
      9 C9         -0.0081   -2.8248    0.6096 C.2       1 <0>         0.5300
     10 N1          0.0528   -4.1099    0.8821 N.pl3     1 <0>        -0.4733
     11 C10         1.2673   -4.7140    1.0636 C.ar      1 <0>         0.0218
     12 C11         2.2834   -4.5430    0.1207 C.ar      1 <0>        -0.0470
     13 C12         3.5054   -5.1544    0.3090 C.ar      1 <0>        -0.1307
     14 C13         3.7266   -5.9373    1.4308 C.ar      1 <0>         0.1627
     15 C14         2.7230   -6.1117    2.3699 C.ar      1 <0>        -0.1304
     16 C15         1.4977   -5.5000    2.1960 C.ar      1 <0>         0.0112
     17 Cl1         0.2436   -5.7130    3.3773 Cl        1 <0>        -0.0167
     18 F1          4.9258   -6.5334    1.6093 F         1 <0>        -0.1074
     19 O1          1.1174   -2.0684    0.5310 O.3       1 <0>        -0.2027
     20 C16        -2.4754   -2.8985   -0.1064 C.2       1 <0>         0.5744
     21 O2         -2.3632   -4.0655   -0.4307 O.2       1 <0>        -0.5348
     22 N2         -3.6740   -2.2880   -0.1906 N.am      1 <0>        -0.6987
     23 C17        -4.8181   -2.9968   -0.7690 C.3       1 <0>         0.1063
     24 C18        -6.0473   -2.0861   -0.7455 C.3       1 <0>         0.0653
     25 H1         -6.2196   -1.7238    0.2680 H         1 <0>         0.0920
     26 C19        -7.2852   -2.8642   -1.2410 C.3       1 <0>        -0.1488
     27 C20        -8.0279   -1.7962   -2.0895 C.3       1 <0>        -0.1571
     28 C21        -6.8327   -1.0051   -2.6782 C.3       1 <0>         0.0489
     29 O3         -5.8477   -0.9776   -1.6305 O.3       1 <0>        -0.3805
     30 O4          3.2258    1.7393    2.4337 O.3       1 <0>        -0.4792
     31 H2         -1.1841    1.7203    1.5432 H         1 <0>         0.1666
     32 H3          0.8439    2.8144    2.3488 H         1 <0>         0.1635
     33 H4          3.1348   -0.6938    1.4830 H         1 <0>         0.1664
     34 H5         -2.2925   -0.2471    0.5077 H         1 <0>         0.1857
     35 H6          2.1125   -3.9335   -0.7543 H         1 <0>         0.1578
     36 H7          4.2915   -5.0230   -0.4198 H         1 <0>         0.1675
     37 H8          2.9011   -6.7236    3.2418 H         1 <0>         0.1713
     38 H9         -3.7790   -1.3792    0.1319 H         1 <0>         0.4073
     39 H10        -4.5911   -3.2742   -1.7984 H         1 <0>         0.0848
     40 H11        -5.0208   -3.8957   -0.1868 H         1 <0>         0.0919
     41 H12        -6.9888   -3.7124   -1.8580 H         1 <0>         0.0845
     42 H13        -7.9004   -3.1895   -0.4020 H         1 <0>         0.0912
     43 H14        -8.6175   -2.2623   -2.8790 H         1 <0>         0.0903
     44 H15        -8.6499   -1.1585   -1.4615 H         1 <0>         0.0833
     45 H16        -6.4374   -1.5151   -3.5567 H         1 <0>         0.0648
     46 H17        -7.1396    0.0089   -2.9345 H         1 <0>         0.0919
     47 H18         3.3854    1.6095    3.3785 H         1 <0>         0.4179
     48 H19        -0.7630   -4.6296    0.9545 H         1 <0>         0.4648
@<TRIPOS>BOND
     1    1    6 ar
     2    1    2 ar
     3    1   31 1
     4    2    3 ar
     5    2   32 1
     6    3    4 ar
     7    3   30 1
     8    4    5 ar
     9    4   33 1
    10    5   19 1
    11    5    6 ar
    12    6    7 1
    13    7    8 2
    14    7   34 1
    15    8    9 1
    16    8   20 1
    17    9   10 2
    18    9   19 1
    19   10   11 1
    20   10   48 1
    21   11   16 ar
    22   11   12 ar
    23   12   13 ar
    24   12   35 1
    25   13   14 ar
    26   13   36 1
    27   14   15 ar
    28   14   18 1
    29   15   16 ar
    30   15   37 1
    31   16   17 1
    32   20   21 2
    33   20   22 am
    34   22   23 1
    35   22   38 1
    36   23   24 1
    37   23   39 1
    38   23   40 1
    39   24   25 1
    40   24   29 1
    41   24   26 1
    42   26   27 1
    43   26   41 1
    44   26   42 1
    45   27   28 1
    46   27   43 1
    47   27   44 1
    48   28   29 1
    49   28   45 1
    50   28   46 1
    51   30   47 1
@<TRIPOS>MOLECULE
ZINC09053998
   45    48     0     0     0
SMALL
USER_CHARGES
3-nitro-4-[[2-(2-thienyl)-7-thia-3-azabicyclo[4.3.0]nona-8,10-dien-3-yl]methyl]benzamide
@<TRIPOS>ATOM
      1 C1         -1.8878    2.6898   -0.9058 C.2       1 <0>        -0.1785
      2 C2         -1.2649    3.9224   -0.8482 C.2       1 <0>        -0.0881
      3 C3         -0.0547    4.0197   -0.2455 C.2       1 <0>        -0.2601
      4 S1          0.2361    2.3363    0.2730 S.3       1 <0>         0.1572
      5 C4         -1.2749    1.6168   -0.3486 C.2       1 <0>        -0.1371
      6 C5          0.8186    5.2340   -0.0606 C.3       1 <0>         0.2163
      7 H1          0.3106    6.1135   -0.4562 H         1 <0>         0.1600
      8 C6          1.1125    5.4322    1.4234 C.2       1 <0>        -0.1419
      9 C7          0.1634    5.2763    2.4308 C.2       1 <0>        -0.1412
     10 C8          0.5115    5.4698    3.7245 C.2       1 <0>        -0.1494
     11 S2          2.2416    5.8939    3.5815 S.3       1 <0>         0.1441
     12 C9          2.3684    5.7822    1.8193 C.2       1 <0>        -0.1937
     13 C10         3.5513    6.0099    0.9356 C.3       1 <0>        -0.0606
     14 C11         3.0396    6.1306   -0.5099 C.3       1 <0>        -0.0051
     15 C12         1.8683    4.8651   -2.2106 C.3       1 <0>         0.0322
     16 C13         3.1883    4.6234   -2.8963 C.ar      1 <0>        -0.0689
     17 C14         3.7785    5.6365   -3.6312 C.ar      1 <0>        -0.0934
     18 C15         4.9890    5.4234   -4.2573 C.ar      1 <0>        -0.0317
     19 C16         5.6137    4.1791   -4.1566 C.ar      1 <0>        -0.0997
     20 C17         5.0106    3.1599   -3.4183 C.ar      1 <0>         0.0102
     21 C18         3.8019    3.3878   -2.7929 C.ar      1 <0>        -0.0417
     22 N1          3.1607    2.3081   -2.0094 N.pl3     1 <0>         0.0241
     23 O1          3.6436    1.1899   -2.0046 O.2       1 <0>        -0.0745
     24 O2          2.1502    2.5378   -1.3694 O.3       1 <0>        -0.2079
     25 C19         6.9090    3.9421   -4.8289 C.2       1 <0>         0.5572
     26 O3          7.4509    2.8577   -4.7392 O.2       1 <0>        -0.5098
     27 N2          7.4889    4.9283   -5.5413 N.am      1 <0>        -0.8389
     28 H2         -2.8498    2.5837   -1.3851 H         1 <0>         0.1452
     29 H3         -1.7337    4.7941   -1.2802 H         1 <0>         0.1396
     30 H4         -1.6112    0.5918   -0.2979 H         1 <0>         0.1959
     31 H5         -0.8504    5.0014    2.1797 H         1 <0>         0.1436
     32 H6         -0.0982    5.3896    4.6123 H         1 <0>         0.2003
     33 H7          4.2391    5.1681    1.0149 H         1 <0>         0.1064
     34 H8          4.0587    6.9299    1.2259 H         1 <0>         0.1329
     35 H9          3.8786    6.0568   -1.2018 H         1 <0>         0.1325
     36 H10         2.5391    7.0896   -0.6436 H         1 <0>         0.1449
     37 H11         1.2109    4.0117   -2.3767 H         1 <0>         0.1585
     38 H12         1.4064    5.7643   -2.6182 H         1 <0>         0.1528
     39 H13         3.2923    6.5976   -3.7113 H         1 <0>         0.1691
     40 H14         5.4504    6.2161   -4.8275 H         1 <0>         0.1624
     41 H15         5.4889    2.1951   -3.3363 H         1 <0>         0.1809
     42 H16         7.0565    5.7937   -5.6128 H         1 <0>         0.4027
     43 H17         8.3387    4.7728   -5.9823 H         1 <0>         0.4195
     44 N3          2.1051    5.0073   -0.7608 N.4       1 <0>        -0.3907
     45 H18         2.5266    4.1410   -0.4057 H         1 <0>         0.4244
@<TRIPOS>BOND
     1    1    5 2
     2    1    2 1
     3    1   28 1
     4    2    3 2
     5    2   29 1
     6    3    4 1
     7    3    6 1
     8    4    5 1
     9    5   30 1
    10    6    7 1
    11    6    8 1
    12    6   44 1
    13    8   12 2
    14    8    9 1
    15    9   10 2
    16    9   31 1
    17   10   11 1
    18   10   32 1
    19   11   12 1
    20   12   13 1
    21   13   14 1
    22   13   33 1
    23   13   34 1
    24   14   35 1
    25   14   36 1
    26   14   44 1
    27   15   16 1
    28   15   37 1
    29   15   38 1
    30   15   44 1
    31   16   21 ar
    32   16   17 ar
    33   17   18 ar
    34   17   39 1
    35   18   19 ar
    36   18   40 1
    37   19   20 ar
    38   19   25 1
    39   20   21 ar
    40   20   41 1
    41   21   22 1
    42   22   23 2
    43   22   24 1
    44   25   26 2
    45   25   27 am
    46   27   42 1
    47   27   43 1
    48   44   45 1
@<TRIPOS>MOLECULE
ZINC01035426
   59    63     0     0     0
SMALL
USER_CHARGES

@<TRIPOS>ATOM
      1 C1         -0.0184    1.5028    0.0103 C.3       1 <0>        -0.0794
      2 C2          0.0021   -0.0041    0.0020 C.2       1 <0>         0.1237
      3 C3          0.0079   -0.8103   -1.1279 C.2       1 <0>        -0.2489
      4 C4          0.0301   -2.1158   -0.7124 C.2       1 <0>         0.3210
      5 N1          0.0344   -2.1165    0.6367 N.pl3     1 <0>        -0.3267
      6 N2          0.0231   -0.7780    1.0621 N.2       1 <0>        -0.2822
      7 C5          0.0520   -3.2478    1.4638 C.ar      1 <0>         0.1549
      8 C6         -0.6186   -4.4011    1.0792 C.ar      1 <0>        -0.1461
      9 C7         -0.5991   -5.5146    1.8962 C.ar      1 <0>        -0.0913
     10 C8          0.0870   -5.4813    3.0963 C.ar      1 <0>        -0.1209
     11 C9          0.7558   -4.3341    3.4821 C.ar      1 <0>        -0.0933
     12 C10         0.7448   -3.2193    2.6667 C.ar      1 <0>        -0.1080
     13 N3          0.0477   -3.1656   -1.6221 N.pl3     1 <0>        -0.6282
     14 C11         0.3398   -2.8909   -2.9346 C.2       1 <0>         0.2397
     15 C12         0.3379   -1.6340   -3.4285 C.2       1 <0>        -0.2780
     16 C13        -0.0080   -0.4286   -2.5809 C.3       1 <0>         0.1078
     17 H1          0.7231    0.3604   -2.7567 H         1 <0>         0.0899
     18 C14        -1.3808    0.0689   -2.9536 C.ar      1 <0>        -0.0283
     19 C15        -2.4779   -0.7596   -2.8075 C.ar      1 <0>        -0.1277
     20 C16        -3.7393   -0.3078   -3.1480 C.ar      1 <0>        -0.1083
     21 C17        -3.9062    0.9780   -3.6366 C.ar      1 <0>         0.0680
     22 C18        -2.8020    1.8120   -3.7833 C.ar      1 <0>         0.1050
     23 C19        -1.5410    1.3547   -3.4356 C.ar      1 <0>        -0.1745
     24 O1         -2.9607    3.0749   -4.2624 O.3       1 <0>        -0.3088
     25 C20        -1.7828    3.8745   -4.3863 C.3       1 <0>         0.0243
     26 O2         -5.1463    1.4238   -3.9725 O.3       1 <0>        -0.4874
     27 C21         0.6669   -1.3871   -4.7735 C.2       1 <0>         0.4061
     28 O3          0.6506   -0.2447   -5.1880 O.2       1 <0>        -0.4677
     29 C22         1.0386   -2.5018   -5.7102 C.3       1 <0>        -0.1600
     30 C23         1.6620   -3.6441   -4.9010 C.3       1 <0>        -0.0509
     31 C24         0.6635   -4.0702   -3.8234 C.3       1 <0>        -0.0923
     32 C25         1.9605   -4.8271   -5.8242 C.3       1 <0>        -0.1422
     33 C26         2.9568   -3.1631   -4.2429 C.3       1 <0>        -0.1524
     34 H2          1.0042    1.8801    0.0026 H         1 <0>         0.0835
     35 H3         -0.5455    1.8639   -0.8728 H         1 <0>         0.0817
     36 H4         -0.5286    1.8543    0.9071 H         1 <0>         0.0780
     37 H5         -1.1552   -4.4275    0.1423 H         1 <0>         0.1214
     38 H6         -1.1205   -6.4120    1.5976 H         1 <0>         0.1354
     39 H7          0.1002   -6.3530    3.7338 H         1 <0>         0.1326
     40 H8          1.2908   -4.3111    4.4200 H         1 <0>         0.1356
     41 H9          1.2710   -2.3251    2.9664 H         1 <0>         0.1365
     42 H10        -0.1420   -4.0728   -1.3359 H         1 <0>         0.4160
     43 H11        -2.3492   -1.7620   -2.4268 H         1 <0>         0.1145
     44 H12        -4.5946   -0.9573   -3.0335 H         1 <0>         0.1311
     45 H13        -0.6829    2.0012   -3.5449 H         1 <0>         0.1335
     46 H14        -1.3168    3.9890   -3.4076 H         1 <0>         0.0551
     47 H15        -1.0838    3.3887   -5.0670 H         1 <0>         0.0587
     48 H16        -2.0495    4.8558   -4.7788 H         1 <0>         0.1001
     49 H17        -5.6209    1.8506   -3.2461 H         1 <0>         0.3842
     50 H18         0.1459   -2.8617   -6.2217 H         1 <0>         0.1012
     51 H19         1.7592   -2.1380   -6.4427 H         1 <0>         0.0983
     52 H20         1.0975   -4.8692   -3.2223 H         1 <0>         0.0905
     53 H21        -0.2503   -4.4290   -4.2972 H         1 <0>         0.1024
     54 H22         2.6564   -4.5140   -6.6025 H         1 <0>         0.0654
     55 H23         2.4036   -5.6372   -5.2450 H         1 <0>         0.0614
     56 H24         1.0341   -5.1729   -6.2828 H         1 <0>         0.0615
     57 H25         2.7379   -2.3272   -3.5785 H         1 <0>         0.0602
     58 H26         3.3970   -3.9782   -3.6684 H         1 <0>         0.0600
     59 H27         3.6579   -2.8413   -5.0129 H         1 <0>         0.0644
@<TRIPOS>BOND
     1    1    2 1
     2    1   34 1
     3    1   35 1
     4    1   36 1
     5    2    6 2
     6    2    3 1
     7    3   16 1
     8    3    4 2
     9    4    5 1
    10    4   13 1
    11    5    6 1
    12    5    7 1
    13    7   12 ar
    14    7    8 ar
    15    8    9 ar
    16    8   37 1
    17    9   10 ar
    18    9   38 1
    19   10   11 ar
    20   10   39 1
    21   11   12 ar
    22   11   40 1
    23   12   41 1
    24   13   14 1
    25   13   42 1
    26   14   31 1
    27   14   15 2
    28   15   16 1
    29   15   27 1
    30   16   17 1
    31   16   18 1
    32   18   23 ar
    33   18   19 ar
    34   19   20 ar
    35   19   43 1
    36   20   21 ar
    37   20   44 1
    38   21   22 ar
    39   21   26 1
    40   22   23 ar
    41   22   24 1
    42   23   45 1
    43   24   25 1
    44   25   46 1
    45   25   47 1
    46   25   48 1
    47   26   49 1
    48   27   28 2
    49   27   29 1
    50   29   30 1
    51   29   50 1
    52   29   51 1
    53   30   31 1
    54   30   32 1
    55   30   33 1
    56   31   52 1
    57   31   53 1
    58   32   54 1
    59   32   55 1
    60   32   56 1
    61   33   57 1
    62   33   58 1
    63   33   59 1
@<TRIPOS>MOLECULE
ZINC39992140
   55    58     0     0     0
SMALL
USER_CHARGES

@<TRIPOS>ATOM
      1 C1          0.0615    1.2675    1.2755 C.3       1 <0>        -0.1672
      2 C2          0.0351   -0.0951    0.5801 C.3       1 <0>         0.1156
      3 N1         -1.3071   -0.6723    0.6876 N.am      1 <0>        -0.7410
      4 C3         -1.5426   -1.9195    0.2343 C.2       1 <0>         0.5216
      5 O1         -0.6261   -2.5974   -0.1796 O.2       1 <0>        -0.4983
      6 C4         -2.9447   -2.4717    0.2419 C.3       1 <0>        -0.0922
      7 H1         -3.4679   -2.1014    1.1235 H         1 <0>         0.1190
      8 C5         -3.6860   -1.9859   -1.0267 C.3       1 <0>         0.1700
      9 H2         -4.7478   -1.8314   -0.8353 H         1 <0>         0.1371
     10 S1         -3.3991   -3.4561   -2.0987 S.3       1 <0>        -0.0758
     11 C6         -3.0822   -4.6499   -0.8203 C.2       1 <0>        -0.0956
     12 C7         -2.8807   -3.9771    0.3034 C.2       1 <0>        -0.1400
     13 C8         -2.5914   -4.7077    1.6133 C.3       1 <0>        -0.0615
     14 C9         -3.0266   -6.1664    1.4806 C.3       1 <0>        -0.1206
     15 C10        -2.3955   -6.7751    0.2241 C.3       1 <0>        -0.1180
     16 C11        -3.0535   -6.1421   -0.9998 C.3       1 <0>        -0.0509
     17 N2         -3.0646   -0.7824   -1.5849 N.am      1 <0>        -0.7018
     18 C12        -2.9494   -0.6409   -2.9203 C.2       1 <0>         0.5593
     19 O2         -3.4501   -1.4624   -3.6643 O.2       1 <0>        -0.4584
     20 C13        -2.2166    0.5092   -3.4789 C.2       1 <0>         0.0059
     21 C14        -2.1855    0.7115   -4.8497 C.2       1 <0>         0.0020
     22 C15        -1.4896    1.8037   -5.3802 C.2       1 <0>         0.0481
     23 C16        -1.3650    2.1512   -6.7205 C.ar      1 <0>        -0.1101
     24 C17        -1.8554    1.5726   -7.9114 C.ar      1 <0>        -0.0468
     25 C18        -1.5731    2.1348   -9.1102 C.ar      1 <0>        -0.1204
     26 C19        -0.7966    3.2950   -9.2311 C.ar      1 <0>         0.0283
     27 C20        -0.2810    3.9253   -8.1512 C.ar      1 <0>        -0.1834
     28 C21        -0.5418    3.3777   -6.8121 C.ar      1 <0>         0.3123
     29 N3         -0.1751    3.7738   -5.6222 N.pl3     1 <0>        -0.5643
     30 C22        -0.7201    2.8581   -4.6151 C.3       1 <0>         0.0544
     31 C23        -1.5366    1.4177   -2.6054 C.1       1 <0>         0.2001
     32 N4         -0.9972    2.1383   -1.9125 N.1       1 <0>        -0.3326
     33 H3          1.0795    1.6570    1.2732 H         1 <0>         0.0772
     34 H4         -0.5932    1.9589    0.7449 H         1 <0>         0.0613
     35 H5         -0.2831    1.1574    2.3037 H         1 <0>         0.0671
     36 H6          0.2944    0.0285   -0.4714 H         1 <0>         0.0571
     37 H7          0.7557   -0.7600    1.0563 H         1 <0>         0.0756
     38 H8         -2.0263   -0.1568    1.0849 H         1 <0>         0.3990
     39 H9         -1.5234   -4.6641    1.8265 H         1 <0>         0.0764
     40 H10        -3.1453   -4.2347    2.4242 H         1 <0>         0.0725
     41 H11        -2.6997   -6.7243    2.3581 H         1 <0>         0.0724
     42 H12        -4.1126   -6.2159    1.4022 H         1 <0>         0.0682
     43 H13        -1.3253   -6.5682    0.2147 H         1 <0>         0.0693
     44 H14        -2.5636   -7.8520    0.2147 H         1 <0>         0.0761
     45 H15        -4.0716   -6.5173   -1.1038 H         1 <0>         0.0885
     46 H16        -2.4771   -6.3920   -1.8906 H         1 <0>         0.0830
     47 H17        -2.7362   -0.0872   -0.9935 H         1 <0>         0.4063
     48 H18        -2.6983    0.0264   -5.5085 H         1 <0>         0.1993
     49 H19        -2.4579    0.6775   -7.8659 H         1 <0>         0.1636
     50 H20        -1.9602    1.6720  -10.0060 H         1 <0>         0.1593
     51 H21        -0.6042    3.6973  -10.2147 H         1 <0>         0.1657
     52 H22         0.3145    4.8183   -8.2710 H         1 <0>         0.1668
     53 H23        -1.3876    3.3936   -3.9400 H         1 <0>         0.1717
     54 H24         0.0915    2.3963   -4.0529 H         1 <0>         0.1708
     55 H25         0.3691    4.5544   -5.4341 H         1 <0>         0.4581
@<TRIPOS>BOND
     1    1    2 1
     2    1   33 1
     3    1   34 1
     4    1   35 1
     5    2    3 1
     6    2   36 1
     7    2   37 1
     8    3    4 am
     9    3   38 1
    10    4    5 2
    11    4    6 1
    12    6    7 1
    13    6   12 1
    14    6    8 1
    15    8    9 1
    16    8   10 1
    17    8   17 1
    18   10   11 1
    19   11   16 1
    20   11   12 2
    21   12   13 1
    22   13   14 1
    23   13   39 1
    24   13   40 1
    25   14   15 1
    26   14   41 1
    27   14   42 1
    28   15   16 1
    29   15   43 1
    30   15   44 1
    31   16   45 1
    32   16   46 1
    33   17   18 am
    34   17   47 1
    35   18   19 2
    36   18   20 1
    37   20   21 2
    38   20   31 1
    39   21   22 1
    40   21   48 1
    41   22   30 1
    42   22   23 2
    43   23   28 ar
    44   23   24 ar
    45   24   25 ar
    46   24   49 1
    47   25   26 ar
    48   25   50 1
    49   26   27 ar
    50   26   51 1
    51   27   28 ar
    52   27   52 1
    53   28   29 2
    54   29   30 1
    55   29   55 1
    56   30   53 1
    57   30   54 1
    58   31   32 3
@<TRIPOS>MOLECULE
ZINC51675179
   61    64     0     0     0
SMALL
USER_CHARGES

@<TRIPOS>ATOM
      1 C1          7.0297    1.5618   -1.8097 C.ar      1 <0>        -0.0898
      2 C2          6.8830    0.2233   -2.1227 C.ar      1 <0>        -0.1008
      3 C3          5.8199   -0.4945   -1.6075 C.ar      1 <0>        -0.0959
      4 C4          4.9038    0.1260   -0.7790 C.ar      1 <0>        -0.1412
      5 C5          5.0509    1.4642   -0.4653 C.ar      1 <0>        -0.1185
      6 C6          6.1132    2.1824   -0.9816 C.ar      1 <0>        -0.0993
      7 C7          3.7442   -0.6563   -0.2181 C.3       1 <0>         0.0713
      8 H1          3.5807   -1.5478   -0.8235 H         1 <0>         0.1477
      9 C8          4.0558   -1.0680    1.2222 C.3       1 <0>         0.1255
     10 N1          5.1863   -1.9999    1.2300 N.am      1 <0>        -0.7435
     11 C9          5.5779   -2.5746    2.3845 C.2       1 <0>         0.7148
     12 O1          5.0484   -2.2569    3.4319 O.2       1 <0>        -0.5783
     13 N2          6.5563   -3.5014    2.3779 N.am      1 <0>        -0.6199
     14 C10         7.2815   -3.8155    1.1393 C.3       1 <0>         0.1085
     15 C11         7.2148   -5.3270    0.8987 C.3       1 <0>        -0.1351
     16 C12         7.7374   -6.0601    2.1363 C.3       1 <0>        -0.1034
     17 C13         6.8558   -5.7233    3.3411 C.3       1 <0>        -0.1207
     18 H2          5.8262   -6.0129    3.1307 H         1 <0>         0.1030
     19 C14         6.9223   -4.2124    3.6105 C.3       1 <0>         0.1388
     20 C15         7.3513   -6.4715    4.5518 C.2       1 <0>         0.5229
     21 O2          8.3149   -7.2023    4.4606 O.2       1 <0>        -0.5256
     22 N3          6.7237   -6.3284    5.7358 N.am      1 <0>        -0.7011
     23 C16         7.2054   -7.0557    6.9128 C.3       1 <0>         0.0734
     24 C17         6.1591   -7.7212    7.8091 C.3       1 <0>        -0.1910
     25 C18         6.8881   -6.4640    8.2876 C.3       1 <0>        -0.1866
     26 N4          2.5353    0.1779   -0.2383 N.4       1 <0>        -0.3886
     27 C19         2.1302    0.4589   -1.6394 C.3       1 <0>        -0.0011
     28 C20         0.6284    0.8168   -1.5093 C.3       1 <0>        -0.1446
     29 C21         0.1360   -0.1524   -0.4101 C.3       1 <0>        -0.1429
     30 C22         1.4019   -0.5519    0.3704 C.3       1 <0>        -0.0146
     31 H3          7.8628    2.1215   -2.2086 H         1 <0>         0.1372
     32 H4          7.5988   -0.2615   -2.7700 H         1 <0>         0.1386
     33 H5          5.7050   -1.5400   -1.8526 H         1 <0>         0.1312
     34 H6          4.3349    1.9491    0.1818 H         1 <0>         0.1190
     35 H7          6.2280    3.2280   -0.7368 H         1 <0>         0.1368
     36 H8          4.3102   -0.1834    1.8060 H         1 <0>         0.0883
     37 H9          3.1825   -1.5526    1.6586 H         1 <0>         0.0933
     38 H10         5.6529   -2.2032    0.4043 H         1 <0>         0.4008
     39 H11         6.8197   -3.2916    0.3025 H         1 <0>         0.0725
     40 H12         8.3223   -3.5067    1.2369 H         1 <0>         0.0802
     41 H13         6.1819   -5.6203    0.7114 H         1 <0>         0.0693
     42 H14         7.8291   -5.5856    0.0363 H         1 <0>         0.0870
     43 H15         7.7141   -7.1352    1.9584 H         1 <0>         0.0814
     44 H16         8.7621   -5.7477    2.3376 H         1 <0>         0.0778
     45 H17         7.9343   -3.9352    3.9055 H         1 <0>         0.0794
     46 H18         6.2232   -3.9503    4.4048 H         1 <0>         0.1005
     47 H19         5.9530   -5.7439    5.8088 H         1 <0>         0.4018
     48 H20         8.1620   -7.5641    6.7923 H         1 <0>         0.1399
     49 H21         5.1124   -7.6179    7.5231 H         1 <0>         0.0971
     50 H22         6.4272   -8.6678    8.2784 H         1 <0>         0.1053
     51 H23         7.6358   -6.5835    9.0717 H         1 <0>         0.1066
     52 H24         6.3209   -5.5336    8.3164 H         1 <0>         0.0980
     53 H25         2.6931    1.3015   -2.0409 H         1 <0>         0.1356
     54 H26         2.2623   -0.4254   -2.2628 H         1 <0>         0.1345
     55 H27         0.5047    1.8528   -1.1937 H         1 <0>         0.0990
     56 H28         0.1054    0.6334   -2.4478 H         1 <0>         0.1186
     57 H29        -0.5717    0.3508    0.2487 H         1 <0>         0.1072
     58 H30        -0.3244   -1.0320   -0.8599 H         1 <0>         0.1053
     59 H31         1.5651   -1.6264    0.2883 H         1 <0>         0.1328
     60 H32         1.2973   -0.2684    1.4177 H         1 <0>         0.1363
     61 H33         2.6995    1.0413    0.2573 H         1 <0>         0.4253
@<TRIPOS>BOND
     1    1    6 ar
     2    1    2 ar
     3    1   31 1
     4    2    3 ar
     5    2   32 1
     6    3    4 ar
     7    3   33 1
     8    4    5 ar
     9    4    7 1
    10    5    6 ar
    11    5   34 1
    12    6   35 1
    13    7    8 1
    14    7    9 1
    15    7   26 1
    16    9   10 1
    17    9   36 1
    18    9   37 1
    19   10   11 am
    20   10   38 1
    21   11   12 2
    22   11   13 am
    23   13   19 1
    24   13   14 1
    25   14   15 1
    26   14   39 1
    27   14   40 1
    28   15   16 1
    29   15   41 1
    30   15   42 1
    31   16   17 1
    32   16   43 1
    33   16   44 1
    34   17   18 1
    35   17   19 1
    36   17   20 1
    37   19   45 1
    38   19   46 1
    39   20   21 2
    40   20   22 am
    41   22   23 1
    42   22   47 1
    43   23   25 1
    44   23   24 1
    45   23   48 1
    46   24   25 1
    47   24   49 1
    48   24   50 1
    49   25   51 1
    50   25   52 1
    51   26   30 1
    52   26   27 1
    53   26   61 1
    54   27   28 1
    55   27   53 1
    56   27   54 1
    57   28   29 1
    58   28   55 1
    59   28   56 1
    60   29   30 1
    61   29   57 1
    62   29   58 1
    63   30   59 1
    64   30   60 1
@<TRIPOS>MOLECULE
ZINC65480385
   69    71     0     0     0
SMALL
USER_CHARGES

@<TRIPOS>ATOM
      1 C1         -1.1409    1.1315   -0.6727 C.3       1 <0>        -0.1540
      2 C2         -0.7319   -0.3282   -0.8792 C.3       1 <0>        -0.1042
      3 C3          0.4761   -0.6515    0.0047 C.3       1 <0>        -0.1404
      4 C4          0.8303   -2.1325   -0.1467 C.3       1 <0>        -0.0175
      5 N1         -0.3126   -2.9570    0.2634 N.4       1 <0>        -0.3811
      6 C5         -1.4533   -2.7046   -0.6252 C.3       1 <0>        -0.0108
      7 C6         -1.8953   -1.2457   -0.4922 C.3       1 <0>        -0.1425
      8 C7          0.0583   -4.3766    0.1905 C.3       1 <0>         0.0150
      9 C8          0.5835   -4.6951   -1.2108 C.3       1 <0>        -0.1818
     10 C9          1.1479   -4.6727    1.2230 C.3       1 <0>         0.1154
     11 N2          0.6813   -4.2743    2.5533 N.am      1 <0>        -0.7675
     12 C10         1.5172   -4.3403    3.6084 C.2       1 <0>         0.7070
     13 O1          2.6587   -4.7305    3.4562 O.2       1 <0>        -0.5669
     14 N3          1.0879   -3.9739    4.8323 N.am      1 <0>        -0.7345
     15 C11         1.9966   -4.0456    5.9792 C.3       1 <0>         0.1628
     16 C12         1.9783   -5.4629    6.5563 C.3       1 <0>        -0.1435
     17 C13         2.9553   -5.5433    7.7335 C.3       1 <0>         0.1123
     18 N4          2.6155   -4.4927    8.7027 N.am      1 <0>        -0.6177
     19 C14         2.5169   -3.1038    8.2335 C.3       1 <0>         0.1082
     20 C15         1.5448   -3.0508    7.0507 C.3       1 <0>        -0.1435
     21 C16         2.3979   -4.7972    9.9974 C.2       1 <0>         0.5204
     22 O2          2.4211   -5.9541   10.3605 O.2       1 <0>        -0.5303
     23 C17         2.1256   -3.7001   10.9941 C.3       1 <0>        -0.1042
     24 C18         3.3809   -2.8419   11.1635 C.3       1 <0>        -0.1145
     25 C19         3.1045   -1.7281   12.1753 C.3       1 <0>        -0.1174
     26 C20         2.7233   -2.3456   13.5222 C.3       1 <0>        -0.1245
     27 C21         1.4680   -3.2038   13.3528 C.3       1 <0>        -0.1202
     28 C22         1.7444   -4.3176   12.3410 C.3       1 <0>        -0.1010
     29 H1         -1.3969    1.2924    0.3745 H         1 <0>         0.0614
     30 H2         -0.3122    1.7836   -0.9485 H         1 <0>         0.0679
     31 H3         -2.0051    1.3585   -1.2970 H         1 <0>         0.0679
     32 H4         -0.4730   -0.4897   -1.9257 H         1 <0>         0.0895
     33 H5          1.3254   -0.0410   -0.3021 H         1 <0>         0.1131
     34 H6          0.2323   -0.4402    1.0458 H         1 <0>         0.0860
     35 H7          1.0742   -2.3426   -1.1881 H         1 <0>         0.1349
     36 H8          1.6902   -2.3660    0.4811 H         1 <0>         0.1312
     37 H9         -1.1607   -2.9026   -1.6564 H         1 <0>         0.1327
     38 H10        -2.2794   -3.3606   -0.3505 H         1 <0>         0.1309
     39 H11        -2.1884   -1.0468    0.5387 H         1 <0>         0.0870
     40 H12        -2.7412   -1.0599   -1.1541 H         1 <0>         0.1138
     41 H13        -0.8168   -4.9920    0.3991 H         1 <0>         0.1453
     42 H14         0.8587   -5.7484   -1.2649 H         1 <0>         0.1109
     43 H15        -0.1928   -4.4841   -1.9464 H         1 <0>         0.0890
     44 H16         1.4586   -4.0797   -1.4194 H         1 <0>         0.0875
     45 H17         1.3705   -5.7397    1.2205 H         1 <0>         0.1119
     46 H18         2.0487   -4.1130    0.9713 H         1 <0>         0.0975
     47 H19        -0.2294   -3.9630    2.6748 H         1 <0>         0.3899
     48 H20         0.1773   -3.6626    4.9538 H         1 <0>         0.3969
     49 H21         3.0081   -3.7980    5.6571 H         1 <0>         0.0956
     50 H22         0.9724   -5.7022    6.9014 H         1 <0>         0.0695
     51 H23         2.2777   -6.1734    5.7858 H         1 <0>         0.0813
     52 H24         2.8738   -6.5203    8.2100 H         1 <0>         0.0991
     53 H25         3.9734   -5.3936    7.3742 H         1 <0>         0.0721
     54 H26         2.1461   -2.4712    9.0399 H         1 <0>         0.0989
     55 H27         3.4993   -2.7551    7.9150 H         1 <0>         0.0764
     56 H28         1.5357   -2.0444    6.6321 H         1 <0>         0.0843
     57 H29         0.5430   -3.3128    7.3911 H         1 <0>         0.0758
     58 H30         1.3060   -3.0779   10.6346 H         1 <0>         0.0938
     59 H31         4.2006   -3.4641   11.5229 H         1 <0>         0.0703
     60 H32         3.6525   -2.4020   10.2039 H         1 <0>         0.0685
     61 H33         3.9989   -1.1167   12.2960 H         1 <0>         0.0679
     62 H34         2.2849   -1.1059   11.8159 H         1 <0>         0.0635
     63 H35         3.5430   -2.9678   13.8816 H         1 <0>         0.0645
     64 H36         2.5264   -1.5521   14.2431 H         1 <0>         0.0653
     65 H37         1.1964   -3.6437   14.3124 H         1 <0>         0.0681
     66 H38         0.6484   -2.5816   12.9934 H         1 <0>         0.0617
     67 H39         0.8501   -4.9290   12.2203 H         1 <0>         0.0674
     68 H40         2.5640   -4.9398   12.7004 H         1 <0>         0.0728
     69 H41        -0.5690   -2.7268    1.2118 H         1 <0>         0.4152
@<TRIPOS>BOND
     1    1    2 1
     2    1   29 1
     3    1   30 1
     4    1   31 1
     5    2    7 1
     6    2    3 1
     7    2   32 1
     8    3    4 1
     9    3   33 1
    10    3   34 1
    11    4    5 1
    12    4   35 1
    13    4   36 1
    14    5    6 1
    15    5    8 1
    16    5   69 1
    17    6    7 1
    18    6   37 1
    19    6   38 1
    20    7   39 1
    21    7   40 1
    22    8    9 1
    23    8   10 1
    24    8   41 1
    25    9   42 1
    26    9   43 1
    27    9   44 1
    28   10   11 1
    29   10   45 1
    30   10   46 1
    31   11   12 am
    32   11   47 1
    33   12   13 2
    34   12   14 am
    35   14   15 1
    36   14   48 1
    37   15   20 1
    38   15   16 1
    39   15   49 1
    40   16   17 1
    41   16   50 1
    42   16   51 1
    43   17   18 1
    44   17   52 1
    45   17   53 1
    46   18   19 1
    47   18   21 am
    48   19   20 1
    49   19   54 1
    50   19   55 1
    51   20   56 1
    52   20   57 1
    53   21   22 2
    54   21   23 1
    55   23   28 1
    56   23   24 1
    57   23   58 1
    58   24   25 1
    59   24   59 1
    60   24   60 1
    61   25   26 1
    62   25   61 1
    63   25   62 1
    64   26   27 1
    65   26   63 1
    66   26   64 1
    67   27   28 1
    68   27   65 1
    69   27   66 1
    70   28   67 1
    71   28   68 1
@<TRIPOS>MOLECULE
ZINC12329882
   59    62     0     0     0
SMALL
USER_CHARGES
(4R)-1'-[(2S)-2-hydroxy-2-(4-methoxyphenyl)ethyl]-7-methoxy-spiro[chroman-2,4'-piperidine]-4-ol
@<TRIPOS>ATOM
      1 C1          0.4583    6.4486    1.1375 C.3       1 <0>         0.0229
      2 O1          0.3651    5.6884    2.3440 O.3       1 <0>        -0.3106
      3 C2          0.5355    4.3441    2.2410 C.ar      1 <0>         0.1524
      4 C3          0.4581    3.5451    3.3725 C.ar      1 <0>        -0.1476
      5 C4          0.6312    2.1788    3.2650 C.ar      1 <0>        -0.0577
      6 C5          0.8815    1.6074    2.0310 C.ar      1 <0>        -0.1848
      7 C6          0.9648    2.4022    0.9027 C.ar      1 <0>        -0.0634
      8 C7          0.7868    3.7684    1.0040 C.ar      1 <0>        -0.2049
      9 C8          1.0700    0.1166    1.9167 C.3       1 <0>         0.1406
     10 H1          1.3286   -0.2928    2.8932 H         1 <0>         0.1288
     11 C9         -0.2279   -0.5251    1.4221 C.3       1 <0>        -0.0387
     12 C10        -1.0521   -2.5741    0.4310 C.3       1 <0>         0.0028
     13 C11        -0.7459   -4.0608    0.2348 C.3       1 <0>        -0.1751
     14 C12        -0.7564   -4.7635    1.5934 C.3       1 <0>         0.1164
     15 C13         0.2586   -4.0934    2.5212 C.3       1 <0>        -0.1299
     16 C14        -0.0788   -2.6060    2.6502 C.3       1 <0>        -0.0030
     17 C15        -0.3859   -6.2392    1.4090 C.3       1 <0>        -0.1427
     18 C16        -1.3508   -6.8536    0.3915 C.3       1 <0>         0.1575
     19 H2         -1.1189   -6.4737   -0.6035 H         1 <0>         0.0684
     20 C17        -2.7685   -6.4867    0.7508 C.ar      1 <0>        -0.2365
     21 C18        -3.8054   -7.2269    0.2061 C.ar      1 <0>        -0.0358
     22 C19        -5.1164   -6.9197    0.5086 C.ar      1 <0>        -0.2264
     23 C20        -5.4011   -5.8634    1.3629 C.ar      1 <0>         0.1727
     24 C21        -4.3673   -5.1222    1.9097 C.ar      1 <0>        -0.1842
     25 C22        -3.0468   -5.4337    1.6051 C.ar      1 <0>         0.1722
     26 O2         -2.0599   -4.6885    2.1678 O.3       1 <0>        -0.3030
     27 O3         -6.6910   -5.5573    1.6615 O.3       1 <0>        -0.3109
     28 C23        -7.7053   -6.3651    1.0608 C.3       1 <0>         0.0239
     29 O4         -1.2104   -8.2756    0.4014 O.3       1 <0>        -0.5514
     30 O5          2.1218   -0.1608    0.9900 O.3       1 <0>        -0.5489
     31 H3          0.3032    7.5042    1.3603 H         1 <0>         0.1089
     32 H4          1.4458    6.3114    0.6971 H         1 <0>         0.0606
     33 H5         -0.3032    6.1098    0.4350 H         1 <0>         0.0597
     34 H6          0.2622    3.9909    4.3365 H         1 <0>         0.1405
     35 H7          0.5707    1.5563    4.1455 H         1 <0>         0.1346
     36 H8          1.1652    1.9540   -0.0593 H         1 <0>         0.1239
     37 H9          0.8475    4.3882    0.1217 H         1 <0>         0.1366
     38 H10        -1.0322   -0.3058    2.1243 H         1 <0>         0.1445
     39 H11        -0.4817   -0.1222    0.4416 H         1 <0>         0.1332
     40 H12        -2.0420   -2.4625    0.8734 H         1 <0>         0.1353
     41 H13        -1.0266   -2.0677   -0.5339 H         1 <0>         0.1313
     42 H14         0.2361   -4.1723   -0.2249 H         1 <0>         0.1082
     43 H15        -1.5026   -4.5063   -0.4110 H         1 <0>         0.1194
     44 H16         1.2601   -4.2047    2.1058 H         1 <0>         0.1126
     45 H17         0.2178   -4.5623    3.5044 H         1 <0>         0.1267
     46 H18         0.6530   -2.1223    3.2971 H         1 <0>         0.1334
     47 H19        -1.0739   -2.4953    3.0811 H         1 <0>         0.1394
     48 H20         0.6366   -6.3179    1.0396 H         1 <0>         0.0983
     49 H21        -0.4736   -6.7619    2.3614 H         1 <0>         0.0993
     50 H22        -3.5865   -8.0485   -0.4597 H         1 <0>         0.1306
     51 H23        -5.9201   -7.5009    0.0813 H         1 <0>         0.1376
     52 H24        -4.5871   -4.2997    2.5743 H         1 <0>         0.1409
     53 H25        -8.6863   -6.0147    1.3816 H         1 <0>         0.1083
     54 H26        -7.6310   -6.2941   -0.0244 H         1 <0>         0.0606
     55 H27        -7.5721   -7.4027    1.3670 H         1 <0>         0.0617
     56 H28        -1.7928   -8.7327   -0.2206 H         1 <0>         0.3855
     57 H29         1.9591    0.1755    0.0981 H         1 <0>         0.3872
     58 N1         -0.0206   -1.9836    1.3104 N.4       1 <0>        -0.3916
     59 H30         0.9050   -2.1585    0.9020 H         1 <0>         0.4298
@<TRIPOS>BOND
     1    1    2 1
     2    1   31 1
     3    1   32 1
     4    1   33 1
     5    2    3 1
     6    3    8 ar
     7    3    4 ar
     8    4    5 ar
     9    4   34 1
    10    5    6 ar
    11    5   35 1
    12    6    7 ar
    13    6    9 1
    14    7    8 ar
    15    7   36 1
    16    8   37 1
    17    9   10 1
    18    9   11 1
    19    9   30 1
    20   11   38 1
    21   11   39 1
    22   11   58 1
    23   12   13 1
    24   12   40 1
    25   12   41 1
    26   12   58 1
    27   13   14 1
    28   13   42 1
    29   13   43 1
    30   14   26 1
    31   14   15 1
    32   14   17 1
    33   15   16 1
    34   15   44 1
    35   15   45 1
    36   16   46 1
    37   16   47 1
    38   16   58 1
    39   17   18 1
    40   17   48 1
    41   17   49 1
    42   18   19 1
    43   18   20 1
    44   18   29 1
    45   20   25 ar
    46   20   21 ar
    47   21   22 ar
    48   21   50 1
    49   22   23 ar
    50   22   51 1
    51   23   24 ar
    52   23   27 1
    53   24   25 ar
    54   24   52 1
    55   25   26 1
    56   27   28 1
    57   28   53 1
    58   28   54 1
    59   28   55 1
    60   29   56 1
    61   30   57 1
    62   58   59 1
@<TRIPOS>MOLECULE
ZINC36384484
   53    57     0     0     0
SMALL
USER_CHARGES

@<TRIPOS>ATOM
      1 C1         -0.0143    1.5286    0.0292 C.3       1 <0>        -0.1258
      2 C2          1.4189    2.0683    0.0208 C.3       1 <0>        -0.1164
      3 C3          2.0631    1.7717    1.3825 C.3       1 <0>        -0.0455
      4 C4          1.7979    0.3401    1.7311 C.2       1 <0>        -0.1448
      5 C5          0.8968   -0.4909    1.1569 C.2       1 <0>        -0.0581
      6 C6          0.8343   -1.8430    1.6811 C.2       1 <0>        -0.2171
      7 C7         -0.0572   -2.9393    1.2325 C.2       1 <0>         0.5563
      8 O1         -0.8650   -2.7908    0.3295 O.2       1 <0>        -0.4537
      9 N1          0.0817   -4.1127    1.8861 N.2       1 <0>        -0.6142
     10 C8          0.9285   -4.3155    2.8531 C.2       1 <0>         0.4134
     11 N2          1.7774   -3.3658    3.3214 N.pl3     1 <0>        -0.5477
     12 C9          1.7198   -2.1448    2.7319 C.2       1 <0>         0.0358
     13 S1          2.5937   -0.6352    2.9834 S.3       1 <0>         0.1771
     14 C10         0.9692   -5.6816    3.4881 C.3       1 <0>         0.0439
     15 N3         -0.0199   -6.5528    2.8395 N.4       1 <0>        -0.3706
     16 C11        -1.3694   -6.0340    3.0961 C.3       1 <0>        -0.0272
     17 C12        -2.3935   -6.8744    2.3264 C.3       1 <0>         0.0800
     18 N4         -2.2065   -8.2871    2.6917 N.pl3     1 <0>        -0.6003
     19 C13        -0.8482   -8.8477    2.6202 C.3       1 <0>         0.0885
     20 C14         0.1030   -7.9140    3.3761 C.3       1 <0>        -0.0214
     21 C15        -3.2498   -9.0462    3.0813 C.2       1 <0>         0.5622
     22 S2         -3.0289  -10.7179    3.3770 S.2       1 <0>        -0.5866
     23 N5         -4.4670   -8.4891    3.2382 N.pl3     1 <0>        -0.6471
     24 C16        -5.5750   -9.2873    3.7686 C.3       1 <0>         0.0612
     25 C17        -6.9352   -9.1527    3.0812 C.3       1 <0>        -0.1776
     26 C18        -6.7138   -8.5401    4.4656 C.3       1 <0>        -0.1786
     27 C19         0.0063    0.0000    0.0186 C.3       1 <0>        -0.0591
     28 H1         -0.5275    1.8776    0.9252 H         1 <0>         0.0682
     29 H2         -0.5425    1.8897   -0.8533 H         1 <0>         0.0783
     30 H3          1.9896    1.5786   -0.7683 H         1 <0>         0.0721
     31 H4          1.4034    3.1448   -0.1498 H         1 <0>         0.0831
     32 H5          3.1383    1.9412    1.3238 H         1 <0>         0.0903
     33 H6          1.6280    2.4204    2.1427 H         1 <0>         0.0932
     34 H7          1.9646   -6.1090    3.3671 H         1 <0>         0.1725
     35 H8          0.7372   -5.5958    4.5497 H         1 <0>         0.1679
     36 H9         -1.5829   -6.0888    4.1636 H         1 <0>         0.1315
     37 H10        -1.4288   -4.9968    2.7663 H         1 <0>         0.1677
     38 H11        -3.4018   -6.5576    2.5929 H         1 <0>         0.1184
     39 H12        -2.2385   -6.7496    1.2547 H         1 <0>         0.1145
     40 H13        -0.8349   -9.8354    3.0809 H         1 <0>         0.1682
     41 H14        -0.5371   -8.9221    1.5782 H         1 <0>         0.1074
     42 H15         1.1284   -8.2623    3.2525 H         1 <0>         0.1552
     43 H16        -0.1551   -7.9120    4.4351 H         1 <0>         0.1407
     44 H17        -4.6094   -7.5597    3.0000 H         1 <0>         0.3966
     45 H18        -5.3031  -10.2679    4.1594 H         1 <0>         0.1701
     46 H19        -7.0056   -8.4701    2.2342 H         1 <0>         0.0994
     47 H20        -7.5584  -10.0448    3.0194 H         1 <0>         0.1158
     48 H21        -7.1913   -9.0292    5.3146 H         1 <0>         0.1163
     49 H22        -6.6386   -7.4546    4.5294 H         1 <0>         0.0977
     50 H23        -1.0060   -0.3796    0.1574 H         1 <0>         0.0873
     51 H24         0.4029   -0.3530   -0.9333 H         1 <0>         0.0837
     52 H25         2.3969   -3.5513    4.0444 H         1 <0>         0.4402
     53 H26         0.1483   -6.5682    1.8448 H         1 <0>         0.4369
@<TRIPOS>BOND
     1    1   27 1
     2    1    2 1
     3    1   28 1
     4    1   29 1
     5    2    3 1
     6    2   30 1
     7    2   31 1
     8    3    4 1
     9    3   32 1
    10    3   33 1
    11    4   13 1
    12    4    5 2
    13    5    6 1
    14    5   27 1
    15    6   12 2
    16    6    7 1
    17    7    8 2
    18    7    9 1
    19    9   10 2
    20   10   11 1
    21   10   14 1
    22   11   12 1
    23   11   52 1
    24   12   13 1
    25   14   15 1
    26   14   34 1
    27   14   35 1
    28   15   20 1
    29   15   16 1
    30   15   53 1
    31   16   17 1
    32   16   36 1
    33   16   37 1
    34   17   18 1
    35   17   38 1
    36   17   39 1
    37   18   19 1
    38   18   21 1
    39   19   20 1
    40   19   40 1
    41   19   41 1
    42   20   42 1
    43   20   43 1
    44   21   22 2
    45   21   23 1
    46   23   24 1
    47   23   44 1
    48   24   26 1
    49   24   25 1
    50   24   45 1
    51   25   26 1
    52   25   46 1
    53   25   47 1
    54   26   48 1
    55   26   49 1
    56   27   50 1
    57   27   51 1
@<TRIPOS>MOLECULE
ZINC14915224
   54    56     0     0     0
SMALL
USER_CHARGES

@<TRIPOS>ATOM
      1 C1          0.0883    1.3071    0.7685 C.3       1 <0>        -0.1813
      2 C2          0.0203   -0.0148    0.0012 C.3       1 <0>         0.0069
      3 H1          0.2422    0.1639   -1.0509 H         1 <0>         0.1629
      4 C3         -1.3623   -0.6003    0.1306 C.2       1 <0>         0.5138
      5 O1         -1.6083   -1.3822    1.0238 O.2       1 <0>        -0.4456
      6 N1         -2.3253   -0.2545   -0.7466 N.am      1 <0>        -0.6763
      7 C4         -3.5618   -0.7781   -0.6309 C.2       1 <0>         0.6914
      8 O2         -3.8084   -1.5621    0.2645 O.2       1 <0>        -0.5162
      9 N2         -4.5248   -0.4324   -1.5081 N.am      1 <0>        -0.7219
     10 C5         -5.8689   -1.0015   -1.3823 C.3       1 <0>         0.1772
     11 C6         -6.7494   -0.4571   -2.4774 C.ar      1 <0>        -0.1226
     12 C7         -7.4680    0.7059   -2.2727 C.ar      1 <0>        -0.0980
     13 C8         -8.2757    1.2053   -3.2772 C.ar      1 <0>        -0.1200
     14 C9         -8.3645    0.5419   -4.4867 C.ar      1 <0>        -0.1032
     15 C10        -7.6452   -0.6207   -4.6918 C.ar      1 <0>        -0.1203
     16 C11        -6.8342   -1.1177   -3.6888 C.ar      1 <0>        -0.0984
     17 N3          1.0038   -0.9543    0.5563 N.4       1 <0>        -0.3715
     18 C12         2.3413   -0.3509    0.4984 C.3       1 <0>        -0.0273
     19 C13         3.3500   -1.2810    1.1805 C.3       1 <0>         0.1010
     20 N4          3.2557   -2.6096    0.5560 N.pl3     1 <0>        -0.6435
     21 C14         1.9240   -3.2207    0.4242 C.3       1 <0>         0.1038
     22 C15         0.9826   -2.1991   -0.2221 C.3       1 <0>        -0.0288
     23 C16         4.3993   -3.2729    0.1010 C.ar      1 <0>         0.1874
     24 C17         5.6560   -2.7256    0.3245 C.ar      1 <0>        -0.1569
     25 C18         6.7844   -3.3828   -0.1254 C.ar      1 <0>        -0.1041
     26 C19         6.6634   -4.5865   -0.7990 C.ar      1 <0>         0.0640
     27 C20         5.4115   -5.1341   -1.0230 C.ar      1 <0>        -0.1039
     28 C21         4.2807   -4.4830   -0.5702 C.ar      1 <0>        -0.1576
     29 F1          7.7684   -5.2275   -1.2386 F         1 <0>        -0.1356
     30 H2          1.0883    1.7306    0.6749 H         1 <0>         0.1038
     31 H3         -0.6415    2.0042    0.3565 H         1 <0>         0.1140
     32 H4         -0.1336    1.1284    1.8206 H         1 <0>         0.0943
     33 H5         -2.1284    0.3711   -1.4612 H         1 <0>         0.4179
     34 H6         -4.3280    0.1933   -2.2227 H         1 <0>         0.4037
     35 H7         -5.8132   -2.0868   -1.4666 H         1 <0>         0.0839
     36 H8         -6.2876   -0.7334   -0.4123 H         1 <0>         0.0842
     37 H9         -7.3986    1.2242   -1.3277 H         1 <0>         0.1247
     38 H10        -8.8376    2.1135   -3.1169 H         1 <0>         0.1279
     39 H11        -8.9961    0.9316   -5.2713 H         1 <0>         0.1277
     40 H12        -7.7149   -1.1392   -5.6367 H         1 <0>         0.1277
     41 H13        -6.2693   -2.0239   -3.8503 H         1 <0>         0.1242
     42 H14         2.6288   -0.2038   -0.5426 H         1 <0>         0.1379
     43 H15         2.3287    0.6106    1.0116 H         1 <0>         0.1482
     44 H16         4.3577   -0.8862    1.0512 H         1 <0>         0.1306
     45 H17         3.1171   -1.3581    2.2425 H         1 <0>         0.0919
     46 H18         1.9890   -4.1083   -0.2050 H         1 <0>         0.1294
     47 H19         1.5472   -3.4937    1.4099 H         1 <0>         0.0937
     48 H20        -0.0311   -2.5994   -0.2400 H         1 <0>         0.1394
     49 H21         1.3112   -1.9960   -1.2414 H         1 <0>         0.1363
     50 H22         5.7508   -1.7865    0.8495 H         1 <0>         0.1339
     51 H23         7.7618   -2.9573    0.0479 H         1 <0>         0.1423
     52 H24         5.3194   -6.0729   -1.5488 H         1 <0>         0.1421
     53 H25         3.3047   -4.9126   -0.7412 H         1 <0>         0.1334
     54 H26         0.7697   -1.1557    1.5169 H         1 <0>         0.4318
@<TRIPOS>BOND
     1    1    2 1
     2    1   30 1
     3    1   31 1
     4    1   32 1
     5    2    3 1
     6    2    4 1
     7    2   17 1
     8    4    5 2
     9    4    6 am
    10    6    7 am
    11    6   33 1
    12    7    8 2
    13    7    9 am
    14    9   10 1
    15    9   34 1
    16   10   11 1
    17   10   35 1
    18   10   36 1
    19   11   16 ar
    20   11   12 ar
    21   12   13 ar
    22   12   37 1
    23   13   14 ar
    24   13   38 1
    25   14   15 ar
    26   14   39 1
    27   15   16 ar
    28   15   40 1
    29   16   41 1
    30   17   22 1
    31   17   18 1
    32   17   54 1
    33   18   19 1
    34   18   42 1
    35   18   43 1
    36   19   20 1
    37   19   44 1
    38   19   45 1
    39   20   21 1
    40   20   23 1
    41   21   22 1
    42   21   46 1
    43   21   47 1
    44   22   48 1
    45   22   49 1
    46   23   28 ar
    47   23   24 ar
    48   24   25 ar
    49   24   50 1
    50   25   26 ar
    51   25   51 1
    52   26   27 ar
    53   26   29 1
    54   27   28 ar
    55   27   52 1
    56   28   53 1
@<TRIPOS>MOLECULE
ZINC18143805
   42    44     0     0     0
SMALL
USER_CHARGES

@<TRIPOS>ATOM
      1 C1         -0.5543    0.1458   -0.2728 C.3       1 <0>        -0.1773
      2 C2         -0.5898   -1.3347    0.0061 C.2       1 <0>         0.2871
      3 N1         -0.4950   -1.7686    1.2281 N.2       1 <0>        -0.3106
      4 N2         -0.3599   -0.8597    2.2857 N.pl3     1 <0>        -0.5085
      5 C3         -0.2596   -1.3189    3.5790 C.cat     1 <0>         0.4947
      6 N3         -0.2903   -2.6009    3.8205 N.pl3     1 <0>        -0.7107
      7 S1         -0.0896   -0.1758    4.9091 S.3       1 <0>         0.1364
      8 C4          0.0029   -1.2285    6.3834 C.3       1 <0>        -0.1699
      9 H1         -0.8540   -1.9008    6.4277 H         1 <0>         0.1766
     10 C5          0.0841   -0.3679    7.6607 C.3       1 <0>        -0.1213
     11 C6          1.4170   -0.7536    8.2641 C.2       1 <0>         0.5260
     12 O1          1.8791   -0.3049    9.2911 O.2       1 <0>        -0.4204
     13 N4          2.0050   -1.6692    7.4843 N.am      1 <0>        -0.5120
     14 C7          1.2966   -2.0131    6.3973 C.2       1 <0>         0.5328
     15 O2          1.6369   -2.8211    5.5600 O.2       1 <0>        -0.4526
     16 C8          3.2580   -2.2256    7.7795 C.ar      1 <0>         0.1050
     17 C9          3.4079   -3.0546    8.8832 C.ar      1 <0>        -0.0761
     18 C10         4.6424   -3.6021    9.1723 C.ar      1 <0>        -0.0823
     19 C11         5.7302   -3.3254    8.3630 C.ar      1 <0>        -0.0134
     20 C12         5.5837   -2.4990    7.2615 C.ar      1 <0>        -0.0237
     21 C13         4.3486   -1.9531    6.9656 C.ar      1 <0>        -0.0771
     22 Cl1         6.9503   -2.1537    6.2481 Cl        1 <0>        -0.0232
     23 Cl2         7.2808   -4.0147    8.7294 Cl        1 <0>        -0.0210
     24 C14        -0.7313   -2.2866   -1.1014 C.2       1 <0>        -0.1967
     25 C15        -0.7906   -3.6685   -1.0619 C.2       1 <0>        -0.0610
     26 C16        -0.9274   -4.3511   -2.2488 C.2       1 <0>        -0.1817
     27 C17        -0.9995   -3.6541   -3.4122 C.2       1 <0>        -0.1226
     28 S2         -0.8800   -1.9638   -2.8511 S.3       1 <0>         0.1341
     29 H2          0.4768    0.4605   -0.4343 H         1 <0>         0.1137
     30 H3         -1.1439    0.3620   -1.1636 H         1 <0>         0.1094
     31 H4         -0.9699    0.6858    0.5780 H         1 <0>         0.0829
     32 H5         -0.3370    0.0933    2.1062 H         1 <0>         0.4243
     33 H6         -0.2196   -2.9246    4.7321 H         1 <0>         0.4373
     34 H7          0.0689    0.6928    7.4102 H         1 <0>         0.1461
     35 H8         -0.7308   -0.6140    8.3415 H         1 <0>         0.1636
     36 H9          2.5596   -3.2709    9.5156 H         1 <0>         0.1474
     37 H10         4.7590   -4.2466   10.0310 H         1 <0>         0.1603
     38 H11         4.2334   -1.3119    6.1042 H         1 <0>         0.1466
     39 H12        -0.7306   -4.1982   -0.1226 H         1 <0>         0.1432
     40 H13        -0.9766   -5.4300   -2.2551 H         1 <0>         0.1494
     41 H14        -1.1063   -4.0273   -4.4200 H         1 <0>         0.2013
     42 H15        -0.3839   -3.2302    3.0883 H         1 <0>         0.4437
@<TRIPOS>BOND
     1    1    2 1
     2    1   29 1
     3    1   30 1
     4    1   31 1
     5    2    3 2
     6    2   24 1
     7    3    4 1
     8    4    5 1
     9    4   32 1
    10    5    6 2
    11    5    7 1
    12    6   33 1
    13    6   42 1
    14    7    8 1
    15    8    9 1
    16    8   14 1
    17    8   10 1
    18   10   11 1
    19   10   34 1
    20   10   35 1
    21   11   12 2
    22   11   13 am
    23   13   14 am
    24   13   16 1
    25   14   15 2
    26   16   21 ar
    27   16   17 ar
    28   17   18 ar
    29   17   36 1
    30   18   19 ar
    31   18   37 1
    32   19   20 ar
    33   19   23 1
    34   20   21 ar
    35   20   22 1
    36   21   38 1
    37   24   28 1
    38   24   25 2
    39   25   26 1
    40   25   39 1
    41   26   27 2
    42   26   40 1
    43   27   28 1
    44   27   41 1
@<TRIPOS>MOLECULE
ZINC66915995
   51    53     0     0     0
SMALL
USER_CHARGES

@<TRIPOS>ATOM
      1 C1         -0.0166    1.3753    0.0096 C.ar      1 <0>        -0.1200
      2 C2          1.1701    2.0869    0.0021 C.ar      1 <0>        -0.0782
      3 C3          2.3825    1.4218   -0.0131 C.ar      1 <0>        -0.1133
      4 C4          2.4156    0.0410   -0.0213 C.ar      1 <0>        -0.0071
      5 C5          1.2214   -0.6825   -0.0138 C.ar      1 <0>        -0.0989
      6 C6          0.0021   -0.0041    0.0020 C.ar      1 <0>        -0.0743
      7 C7          1.2486   -2.1601   -0.0230 C.2       1 <0>         0.0691
      8 C8          0.1130   -2.8441   -0.0158 C.2       1 <0>        -0.7584
      9 S1          0.1454   -4.6058   -0.0268 S.o2      1 <0>         2.6798
     10 O1         -0.7530   -5.0222   -1.0459 O.2       1 <0>        -0.9442
     11 O2          1.5143   -4.9868   -0.0156 O.2       1 <0>        -0.9500
     12 N1         -0.4997   -5.1163    1.4104 N.pl3     1 <0>        -1.0055
     13 C9          0.3587   -5.3233    2.5848 C.3       1 <0>         0.1225
     14 C10         0.1275   -6.7396    3.1210 C.3       1 <0>        -0.1582
     15 C11        -1.3654   -6.9414    3.3903 C.3       1 <0>         0.0281
     16 C12        -2.1468   -6.7862    2.0836 C.3       1 <0>        -0.1544
     17 C13        -1.9422   -5.3651    1.5371 C.3       1 <0>         0.1207
     18 N2         -1.5867   -8.2872    3.9359 N.4       1 <0>        -0.3800
     19 C14        -3.0253   -8.4796    4.2174 C.3       1 <0>        -0.0101
     20 C15        -3.0649   -9.3404    5.5047 C.3       1 <0>        -0.1427
     21 C16        -1.8632   -8.7678    6.3016 C.3       1 <0>        -0.1311
     22 C17        -0.8371   -8.4412    5.1962 C.3       1 <0>        -0.0081
     23 H1         -0.3180   -7.5128    5.4347 H         1 <0>         0.1679
     24 C18         0.1550   -9.5684    5.0682 C.2       1 <0>         0.5153
     25 O3          0.2364  -10.1896    4.0298 O.2       1 <0>        -0.5223
     26 N3          0.9517   -9.8862    6.1078 N.am      1 <0>        -0.8234
     27 Cl1         3.9381   -0.7929   -0.0415 Cl        1 <0>        -0.0503
     28 H2         -0.9599    1.9011    0.0260 H         1 <0>         0.1388
     29 H3          1.1494    3.1667    0.0077 H         1 <0>         0.1420
     30 H4          3.3051    1.9831   -0.0189 H         1 <0>         0.1443
     31 H5         -0.9251   -0.5578    0.0079 H         1 <0>         0.1376
     32 H6          2.1937   -2.6827   -0.0355 H         1 <0>         0.1491
     33 H7         -0.8321   -2.3215   -0.0032 H         1 <0>         0.1652
     34 H8          1.4039   -5.2071    2.2984 H         1 <0>         0.1158
     35 H9          0.1056   -4.5950    3.3553 H         1 <0>         0.0859
     36 H10         0.4659   -7.4675    2.3836 H         1 <0>         0.0993
     37 H11         0.6857   -6.8733    4.0477 H         1 <0>         0.0953
     38 H12        -1.7086   -6.1974    4.1092 H         1 <0>         0.1431
     39 H13        -1.7870   -7.5137    1.3560 H         1 <0>         0.0969
     40 H14        -3.2073   -6.9532    2.2718 H         1 <0>         0.1044
     41 H15        -2.3791   -4.6401    2.2239 H         1 <0>         0.0867
     42 H16        -2.4155   -5.2764    0.5593 H         1 <0>         0.1172
     43 H17        -3.5104   -7.5186    4.3884 H         1 <0>         0.1380
     44 H18        -3.5060   -9.0070    3.3934 H         1 <0>         0.1402
     45 H19        -3.9991   -9.1907    6.0459 H         1 <0>         0.1252
     46 H20        -2.9136  -10.3949    5.2741 H         1 <0>         0.1006
     47 H21        -2.1521   -7.8643    6.8384 H         1 <0>         0.1159
     48 H22        -1.4651   -9.5148    6.9884 H         1 <0>         0.1153
     49 H23         0.8866   -9.3893    6.9384 H         1 <0>         0.4136
     50 H24         1.5902  -10.6117    6.0254 H         1 <0>         0.4253
     51 H25        -1.2774   -8.9795    3.2702 H         1 <0>         0.4315
@<TRIPOS>BOND
     1    1    6 ar
     2    1    2 ar
     3    1   28 1
     4    2    3 ar
     5    2   29 1
     6    3    4 ar
     7    3   30 1
     8    4    5 ar
     9    4   27 1
    10    5    6 ar
    11    5    7 1
    12    6   31 1
    13    7    8 2
    14    7   32 1
    15    8    9 1
    16    8   33 1
    17    9   10 2
    18    9   11 2
    19    9   12 1
    20   12   17 1
    21   12   13 1
    22   13   14 1
    23   13   34 1
    24   13   35 1
    25   14   15 1
    26   14   36 1
    27   14   37 1
    28   15   16 1
    29   15   18 1
    30   15   38 1
    31   16   17 1
    32   16   39 1
    33   16   40 1
    34   17   41 1
    35   17   42 1
    36   18   22 1
    37   18   19 1
    38   18   51 1
    39   19   20 1
    40   19   43 1
    41   19   44 1
    42   20   21 1
    43   20   45 1
    44   20   46 1
    45   21   22 1
    46   21   47 1
    47   21   48 1
    48   22   23 1
    49   22   24 1
    50   24   25 2
    51   24   26 am
    52   26   49 1
    53   26   50 1
@<TRIPOS>MOLECULE
ZINC19393626
   43    45     0     0     0
SMALL
USER_CHARGES
2-[[4-(aminomethyl)phenyl]methyl]-2,4-diazaspiro[4.5]decane-1,3-dione
@<TRIPOS>ATOM
      1 C1         -0.3599    2.7788    1.8186 C.ar      1 <0>        -0.0967
      2 C2         -1.0099    3.2267    2.9534 C.ar      1 <0>        -0.0885
      3 C3         -2.0119    2.4633    3.5227 C.ar      1 <0>        -0.0787
      4 C4         -2.3665    1.2538    2.9550 C.ar      1 <0>        -0.0939
      5 C5         -1.7194    0.8079    1.8177 C.ar      1 <0>        -0.0971
      6 C6         -0.7181    1.5718    1.2479 C.ar      1 <0>        -0.1599
      7 C7         -0.0127    1.0858    0.0080 C.3       1 <0>         0.0525
      8 N1         -0.7232    1.5724   -1.1821 N.4       1 <0>        -0.6851
      9 C8         -2.7180    2.9497    4.7620 C.3       1 <0>         0.1467
     10 N2         -2.0107    2.4641    5.9495 N.am      1 <0>        -0.5759
     11 C9         -2.2806    1.2957    6.5678 C.2       1 <0>         0.5306
     12 O1         -3.1222    0.4794    6.2595 O.2       1 <0>        -0.4600
     13 C10        -1.3110    1.2179    7.7245 C.3       1 <0>         0.1149
     14 C11        -2.0694    1.1612    9.0460 C.3       1 <0>        -0.1158
     15 C12        -1.0721    1.1210   10.2069 C.3       1 <0>        -0.1183
     16 C13        -0.1723   -0.1079   10.0623 C.3       1 <0>        -0.1282
     17 C14         0.5976   -0.0268    8.7426 C.3       1 <0>        -0.1179
     18 C15        -0.3936    0.0090    7.5764 C.3       1 <0>        -0.1113
     19 N3         -0.5394    2.4636    7.6277 N.am      1 <0>        -0.7246
     20 C16        -1.0203    3.1271    6.5590 C.2       1 <0>         0.7120
     21 O2         -0.6018    4.2066    6.1891 O.2       1 <0>        -0.5427
     22 H1          0.4254    3.3735    1.3759 H         1 <0>         0.1336
     23 H2         -0.7331    4.1718    3.3968 H         1 <0>         0.1418
     24 H3         -3.1493    0.6573    3.3998 H         1 <0>         0.1390
     25 H4         -1.9965   -0.1370    1.3742 H         1 <0>         0.1334
     26 H5          1.0193    1.4666    0.0002 H         1 <0>         0.1348
     27 H6          0.0023   -0.0141    0.0020 H         1 <0>         0.1347
     28 H7         -0.2083    1.2177   -2.0871 H         1 <0>         0.4590
     29 H8         -0.7381    2.6723   -1.1760 H         1 <0>         0.4556
     30 H9         -2.7323    4.0496    4.7680 H         1 <0>         0.1143
     31 H10        -3.7502    2.5695    4.7690 H         1 <0>         0.1116
     32 H11        -2.7068    2.0526    9.1415 H         1 <0>         0.0751
     33 H12        -2.6965    0.2578    9.0704 H         1 <0>         0.0907
     34 H13        -0.4551    2.0316   10.1919 H         1 <0>         0.0651
     35 H14        -1.6199    1.0649   11.1591 H         1 <0>         0.0787
     36 H15         0.5400   -0.1414   10.8999 H         1 <0>         0.0730
     37 H16        -0.7903   -1.0178   10.0700 H         1 <0>         0.0704
     38 H17         1.2108    0.8863    8.7314 H         1 <0>         0.0647
     39 H18         1.2494   -0.9074    8.6436 H         1 <0>         0.0768
     40 H19        -0.9963   -0.9112    7.5796 H         1 <0>         0.0896
     41 H20         0.1590    0.0821    6.6281 H         1 <0>         0.0699
     42 H21         0.2517    2.6789    8.3610 H         1 <0>         0.4705
     43 H22        -1.7552    1.1916   -1.1743 H         1 <0>         0.4555
@<TRIPOS>BOND
     1    1    6 ar
     2    1    2 ar
     3    1   22 1
     4    2    3 ar
     5    2   23 1
     6    3    4 ar
     7    3    9 1
     8    4    5 ar
     9    4   24 1
    10    5    6 ar
    11    5   25 1
    12    6    7 1
    13    7    8 1
    14    7   26 1
    15    7   27 1
    16    8   28 1
    17    8   29 1
    18    8   43 1
    19    9   10 1
    20    9   30 1
    21    9   31 1
    22   10   20 am
    23   10   11 am
    24   11   12 2
    25   11   13 1
    26   13   18 1
    27   13   14 1
    28   13   19 1
    29   14   15 1
    30   14   32 1
    31   14   33 1
    32   15   16 1
    33   15   34 1
    34   15   35 1
    35   16   17 1
    36   16   36 1
    37   16   37 1
    38   17   18 1
    39   17   38 1
    40   17   39 1
    41   18   40 1
    42   18   41 1
    43   19   20 am
    44   19   42 1
    45   20   21 2
@<TRIPOS>MOLECULE
ZINC37974233
   44    45     0     0     0
SMALL
USER_CHARGES

@<TRIPOS>ATOM
      1 C1         -0.0187    1.5258    0.0104 C.3       1 <0>        -0.1699
      2 C2          0.0021   -0.0041    0.0020 C.3       1 <0>         0.0965
      3 H1          0.5293   -0.3651    0.8851 H         1 <0>         0.1502
      4 C3         -1.4117   -0.5257    0.0127 C.2       1 <0>         0.5083
      5 O1         -1.8076   -1.2234   -0.8969 O.2       1 <0>        -0.5124
      6 N1         -2.2363   -0.2169    1.0331 N.am      1 <0>        -0.7049
      7 C4         -3.6107   -0.7239    1.0435 C.3       1 <0>         0.1691
      8 C5         -3.5899   -2.2538    1.0351 C.3       1 <0>        -0.1666
      9 C6         -4.3268   -0.2305    2.3023 C.3       1 <0>        -0.1602
     10 C7         -4.3507   -0.2171   -0.1960 C.3       1 <0>        -0.1661
     11 N2          0.6878   -0.4765   -1.2033 N.pl3     1 <0>        -0.4000
     12 C8          0.3255   -0.2219   -2.4998 C.2       1 <0>         0.0502
     13 C9          1.2242   -0.8422   -3.2900 C.2       1 <0>        -0.0013
     14 N3          2.1167   -1.4625   -2.5087 N.pl3     1 <0>        -0.4784
     15 C10         1.8119   -1.2487   -1.2477 C.cat     1 <0>         0.3870
     16 C11         2.5573   -1.7603   -0.0782 C.ar      1 <0>        -0.1676
     17 C12         2.6522   -0.9900    1.0824 C.ar      1 <0>        -0.0310
     18 C13         3.3477   -1.4695    2.1708 C.ar      1 <0>        -0.1922
     19 C14         3.9552   -2.7192    2.1141 C.ar      1 <0>         0.2701
     20 C15         3.8623   -3.4888    0.9594 C.ar      1 <0>        -0.1916
     21 C16         3.1629   -3.0173   -0.1300 C.ar      1 <0>        -0.0172
     22 N4          4.6593   -3.2016    3.2172 N.pl3     1 <0>        -0.8518
     23 H2          1.0039    1.9031    0.0027 H         1 <0>         0.0889
     24 H3         -0.5459    1.8868   -0.8726 H         1 <0>         0.0851
     25 H4         -0.5289    1.8773    0.9072 H         1 <0>         0.1037
     26 H5         -1.9197    0.3412    1.7606 H         1 <0>         0.4046
     27 H6         -3.0627   -2.6149    1.9182 H         1 <0>         0.0568
     28 H7         -4.6125   -2.6311    1.0429 H         1 <0>         0.0722
     29 H8         -3.0797   -2.6053    0.1383 H         1 <0>         0.0750
     30 H9         -4.3416    0.8594    2.3083 H         1 <0>         0.0665
     31 H10        -5.3494   -0.6078    2.3101 H         1 <0>         0.0822
     32 H11        -3.7996   -0.5916    3.1854 H         1 <0>         0.0657
     33 H12        -3.8405   -0.5686   -1.0928 H         1 <0>         0.0755
     34 H13        -5.3732   -0.5944   -0.1883 H         1 <0>         0.0720
     35 H14        -4.3654    0.8728   -0.1900 H         1 <0>         0.0581
     36 H15        -0.5204    0.3646   -2.8269 H         1 <0>         0.2172
     37 H16         1.2240   -0.8396   -4.3700 H         1 <0>         0.2239
     38 H17         2.1813   -0.0191    1.1268 H         1 <0>         0.1331
     39 H18         3.4215   -0.8741    3.0689 H         1 <0>         0.1423
     40 H19         4.3354   -4.4588    0.9181 H         1 <0>         0.1423
     41 H20         3.0871   -3.6174   -1.0247 H         1 <0>         0.1337
     42 H21         4.7249   -2.6655    4.0229 H         1 <0>         0.4102
     43 H22         5.0834   -4.0731    3.1787 H         1 <0>         0.4106
     44 H23         2.8714   -1.9844   -2.8232 H         1 <0>         0.4605
@<TRIPOS>BOND
     1    1    2 1
     2    1   23 1
     3    1   24 1
     4    1   25 1
     5    2    3 1
     6    2    4 1
     7    2   11 1
     8    4    5 2
     9    4    6 am
    10    6    7 1
    11    6   26 1
    12    7    8 1
    13    7    9 1
    14    7   10 1
    15    8   27 1
    16    8   28 1
    17    8   29 1
    18    9   30 1
    19    9   31 1
    20    9   32 1
    21   10   33 1
    22   10   34 1
    23   10   35 1
    24   11   15 1
    25   11   12 1
    26   12   13 2
    27   12   36 1
    28   13   14 1
    29   13   37 1
    30   14   15 2
    31   14   44 1
    32   15   16 1
    33   16   21 ar
    34   16   17 ar
    35   17   18 ar
    36   17   38 1
    37   18   19 ar
    38   18   39 1
    39   19   20 ar
    40   19   22 1
    41   20   21 ar
    42   20   40 1
    43   21   41 1
    44   22   42 1
    45   22   43 1
@<TRIPOS>MOLECULE
ZINC44533724
   44    45     0     0     0
SMALL
USER_CHARGES

@<TRIPOS>ATOM
      1 C1         -0.0184    1.5028    0.0103 C.3       1 <0>        -0.1243
      2 C2          0.0021   -0.0041    0.0020 C.ar      1 <0>        -0.0982
      3 C3          0.0058   -0.6929   -1.2042 C.ar      1 <0>         0.2161
      4 C4          0.0246   -2.0818   -1.2075 C.ar      1 <0>        -0.0934
      5 C5          0.0396   -2.7741   -0.0123 C.ar      1 <0>        -0.6258
      6 C6          0.0354   -2.0865    1.1870 C.ar      1 <0>        -0.0741
      7 C7          0.0229   -0.7023    1.1944 C.ar      1 <0>        -0.0105
      8 Cl1         0.0261    0.1570    2.7028 Cl        1 <0>        -0.0492
      9 S1          0.0634   -4.5360   -0.0163 S.o2      1 <0>         2.6973
     10 O1         -0.4760   -4.9523    1.2306 O.2       1 <0>        -0.9448
     11 O2         -0.4877   -4.9467   -1.2600 O.2       1 <0>        -0.9434
     12 N1          1.6518   -5.0041   -0.0249 N.pl3     1 <0>        -1.1181
     13 C8          2.5115   -4.6994    1.1216 C.3       1 <0>         0.1216
     14 C9          3.7870   -5.5404    1.0404 C.3       1 <0>        -0.1184
     15 H1          3.5233   -6.5952    0.9636 H         1 <0>         0.1072
     16 C10         4.5962   -5.1245   -0.1915 C.3       1 <0>        -0.1375
     17 C11         5.9067   -5.9163   -0.2204 C.3       1 <0>        -0.1463
     18 C12         6.6705   -5.6757    1.0835 C.3       1 <0>        -0.0089
     19 N2          5.8551   -6.1176    2.2212 N.4       1 <0>        -0.3832
     20 C13         4.6289   -5.3145    2.2981 C.3       1 <0>        -0.0060
     21 C14         6.6226   -5.9569    3.4634 C.3       1 <0>        -0.0475
     22 N3         -0.0099    0.0096   -2.4113 N.pl3     1 <0>        -0.8671
     23 H2          1.0042    1.8801    0.0026 H         1 <0>         0.0815
     24 H3         -0.5455    1.8639   -0.8728 H         1 <0>         0.0722
     25 H4         -0.5286    1.8543    0.9071 H         1 <0>         0.0836
     26 H5          0.0271   -2.6200   -2.1439 H         1 <0>         0.1454
     27 H6          0.0464   -2.6304    2.1200 H         1 <0>         0.1467
     28 H7          2.0131   -5.4800   -0.7890 H         1 <0>         0.4211
     29 H8          2.7725   -3.6412    1.1089 H         1 <0>         0.0799
     30 H9          1.9812   -4.9318    2.0452 H         1 <0>         0.0948
     31 H10         4.0220   -5.3368   -1.0934 H         1 <0>         0.0960
     32 H11         4.8157   -4.0581   -0.1404 H         1 <0>         0.0873
     33 H12         5.6876   -6.9791   -0.3230 H         1 <0>         0.0896
     34 H13         6.5130   -5.5859   -1.0638 H         1 <0>         0.1143
     35 H14         7.6042   -6.2378    1.0661 H         1 <0>         0.1318
     36 H15         6.8893   -4.6127    1.1850 H         1 <0>         0.1291
     37 H16         4.8912   -4.2593    2.3745 H         1 <0>         0.1336
     38 H17         4.0553   -5.6099    3.1766 H         1 <0>         0.1374
     39 H18         6.8894   -4.9080    3.5926 H         1 <0>         0.1223
     40 H19         6.0179   -6.2848    4.3090 H         1 <0>         0.1255
     41 H20         7.5298   -6.5587    3.4104 H         1 <0>         0.1251
     42 H21        -0.0233    0.9795   -2.4079 H         1 <0>         0.4054
     43 H22        -0.0073   -0.4724   -3.2531 H         1 <0>         0.4063
     44 H23         5.6118   -7.0895    2.1019 H         1 <0>         0.4257
@<TRIPOS>BOND
     1    1    2 1
     2    1   23 1
     3    1   24 1
     4    1   25 1
     5    2    7 ar
     6    2    3 ar
     7    3    4 ar
     8    3   22 1
     9    4    5 ar
    10    4   26 1
    11    5    6 ar
    12    5    9 1
    13    6    7 ar
    14    6   27 1
    15    7    8 1
    16    9   10 2
    17    9   11 2
    18    9   12 1
    19   12   13 1
    20   12   28 1
    21   13   14 1
    22   13   29 1
    23   13   30 1
    24   14   15 1
    25   14   20 1
    26   14   16 1
    27   16   17 1
    28   16   31 1
    29   16   32 1
    30   17   18 1
    31   17   33 1
    32   17   34 1
    33   18   19 1
    34   18   35 1
    35   18   36 1
    36   19   20 1
    37   19   21 1
    38   19   44 1
    39   20   37 1
    40   20   38 1
    41   21   39 1
    42   21   40 1
    43   21   41 1
    44   22   42 1
    45   22   43 1
@<TRIPOS>MOLECULE
ZINC53205984
   46    48     0     0     0
SMALL
USER_CHARGES

@<TRIPOS>ATOM
      1 C1         -0.0178    1.4648    0.0101 C.3       1 <0>        -0.0474
      2 N1          0.0021   -0.0041    0.0020 N.4       1 <0>        -0.3803
      3 C2          0.6815   -0.4760   -1.2105 C.3       1 <0>        -0.0088
      4 C3          0.6339   -2.0045   -1.2642 C.3       1 <0>        -0.1440
      5 C4          1.3359   -2.5754   -0.0287 C.3       1 <0>        -0.1510
      6 C5          0.6658   -2.0178    1.2303 C.3       1 <0>         0.1587
      7 H1         -0.3718   -2.3496    1.2677 H         1 <0>         0.0996
      8 C6          0.7122   -0.4888    1.1916 C.3       1 <0>        -0.0305
      9 N2          1.3766   -2.4999    2.4171 N.pl3     1 <0>        -0.6490
     10 C7          2.7947   -2.1817    2.6012 C.3       1 <0>         0.1008
     11 C8          0.6996   -3.2659    3.3770 C.ar      1 <0>         0.0458
     12 C9          0.6706   -4.6477    3.2675 C.ar      1 <0>        -0.0335
     13 C10         0.0032   -5.4034    4.2128 C.ar      1 <0>        -0.1698
     14 C11        -0.6402   -4.7815    5.2748 C.ar      1 <0>         0.2206
     15 C12        -0.6136   -3.3984    5.3897 C.ar      1 <0>        -0.2264
     16 C13         0.0596   -2.6387    4.4458 C.ar      1 <0>         0.2431
     17 N3          0.0926   -1.2439    4.5621 N.pl3     1 <0>        -0.8723
     18 N4         -1.3154   -5.5523    6.2299 N.am      1 <0>        -0.6673
     19 C14        -1.0519   -6.8657    6.3561 C.2       1 <0>         0.5210
     20 O1         -1.6558   -7.5221    7.1781 O.2       1 <0>        -0.5152
     21 C15        -0.0168   -7.5297    5.4886 C.3       1 <0>        -0.1405
     22 C16        -0.0288   -6.9052    4.0933 C.3       1 <0>        -0.0709
     23 H2          1.0047    1.8421    0.0024 H         1 <0>         0.1217
     24 H3         -0.5450    1.8259   -0.8730 H         1 <0>         0.1257
     25 H4         -0.5280    1.8163    0.9069 H         1 <0>         0.1225
     26 H5          0.1827   -0.0663   -2.0888 H         1 <0>         0.1323
     27 H6          1.7201   -0.1456   -1.1964 H         1 <0>         0.1282
     28 H7         -0.4044   -2.3361   -1.2786 H         1 <0>         0.0891
     29 H8          1.1404   -2.3531   -2.1643 H         1 <0>         0.1149
     30 H9          1.2554   -3.6625   -0.0335 H         1 <0>         0.0972
     31 H10         2.3869   -2.2866   -0.0407 H         1 <0>         0.0835
     32 H11         1.7502   -0.1581    1.1545 H         1 <0>         0.1294
     33 H12         0.2361   -0.0886    2.0867 H         1 <0>         0.1234
     34 H13         2.8886   -1.2445    3.1499 H         1 <0>         0.0375
     35 H14         3.2766   -2.9816    3.1633 H         1 <0>         0.0704
     36 H15         3.2741   -2.0821    1.6274 H         1 <0>         0.0612
     37 H16         1.1698   -5.1340    2.4424 H         1 <0>         0.1303
     38 H17        -1.1140   -2.9149    6.2156 H         1 <0>         0.1307
     39 H18         0.5608   -0.7128    3.8990 H         1 <0>         0.3910
     40 H19        -0.3528   -0.8086    5.3057 H         1 <0>         0.4020
     41 H20        -1.9775   -5.1364    6.8039 H         1 <0>         0.4126
     42 H21         0.9686   -7.3983    5.9356 H         1 <0>         0.1058
     43 H22        -0.2385   -8.5941    5.4106 H         1 <0>         0.1122
     44 H23        -0.9343   -7.2085    3.5678 H         1 <0>         0.0807
     45 H24         0.8448   -7.2439    3.5362 H         1 <0>         0.0902
     46 H25        -0.9449   -0.3523    0.0117 H         1 <0>         0.4247
@<TRIPOS>BOND
     1    1    2 1
     2    1   23 1
     3    1   24 1
     4    1   25 1
     5    2    8 1
     6    2    3 1
     7    2   46 1
     8    3    4 1
     9    3   26 1
    10    3   27 1
    11    4    5 1
    12    4   28 1
    13    4   29 1
    14    5    6 1
    15    5   30 1
    16    5   31 1
    17    6    7 1
    18    6    8 1
    19    6    9 1
    20    8   32 1
    21    8   33 1
    22    9   10 1
    23    9   11 1
    24   10   34 1
    25   10   35 1
    26   10   36 1
    27   11   16 ar
    28   11   12 ar
    29   12   13 ar
    30   12   37 1
    31   13   22 1
    32   13   14 ar
    33   14   15 ar
    34   14   18 1
    35   15   16 ar
    36   15   38 1
    37   16   17 1
    38   17   39 1
    39   17   40 1
    40   18   19 am
    41   18   41 1
    42   19   20 2
    43   19   21 1
    44   21   22 1
    45   21   42 1
    46   21   43 1
    47   22   44 1
    48   22   45 1
@<TRIPOS>MOLECULE
ZINC63025289
   40    41     0     0     0
SMALL
USER_CHARGES

@<TRIPOS>ATOM
      1 C1         -0.1226    1.6700   -0.3429 C.3       1 <0>        -0.1694
      2 C2         -0.1282    0.1488   -0.1793 C.3       1 <0>        -0.0743
      3 C3          0.5114   -0.2225    1.1601 C.3       1 <0>        -0.1468
      4 C4         -1.5697   -0.3627   -0.2154 C.3       1 <0>        -0.1659
      5 C5          0.6682   -0.4896   -1.3191 C.3       1 <0>         0.0426
      6 H1          0.6642   -1.5733   -1.2026 H         1 <0>         0.1416
      7 C6          2.1097    0.0219   -1.2831 C.3       1 <0>        -0.1271
      8 C7          2.9094   -0.6527   -2.3677 C.ar      1 <0>        -0.0204
      9 C8          3.1990    0.0336   -3.5259 C.ar      1 <0>        -0.1258
     10 C9          3.9400   -0.5893   -4.5317 C.ar      1 <0>         0.2240
     11 C10         4.3821   -1.9179   -4.3440 C.ar      1 <0>        -0.2041
     12 C11         4.0784   -2.5945   -3.1649 C.ar      1 <0>         0.0502
     13 C12         3.3499   -1.9566   -2.1844 C.ar      1 <0>        -0.0797
     14 N1          3.0299   -2.6693   -0.9271 N.pl3     1 <0>         0.0348
     15 O1          3.3151   -3.8378   -0.8053 O.2       1 <0>        -0.1300
     16 O2          2.4832   -2.0829   -0.0222 O.3       1 <0>        -0.1627
     17 C13         5.1599   -2.5454   -5.4227 C.2       1 <0>         0.5490
     18 O3          5.5702   -3.6872   -5.3247 O.2       1 <0>        -0.4724
     19 N2          5.4015   -1.8040   -6.5290 N.am      1 <0>        -0.6489
     20 H2          5.9111   -2.1851   -7.2611 H         1 <0>         0.4362
     21 C14         4.9365   -0.5310   -6.6237 C.2       1 <0>         0.4290
     22 N3          4.2476    0.0492   -5.6885 N.2       1 <0>        -0.5406
     23 N4          0.0541   -0.1331   -2.6051 N.4       1 <0>        -0.6419
     24 H3          0.9044    2.0345   -0.3172 H         1 <0>         0.0765
     25 H4         -0.5782    1.9345   -1.2971 H         1 <0>         0.0517
     26 H5         -0.6899    2.1248    0.4691 H         1 <0>         0.0886
     27 H6         -0.0559    0.2323    1.9721 H         1 <0>         0.0768
     28 H7          0.5074   -1.3062    1.2766 H         1 <0>         0.0785
     29 H8          1.5384    0.1420    1.1858 H         1 <0>         0.0726
     30 H9         -2.0253   -0.0982   -1.1696 H         1 <0>         0.0506
     31 H10        -1.5736   -1.4465   -0.0988 H         1 <0>         0.0755
     32 H11        -2.1370    0.0921    0.5967 H         1 <0>         0.0897
     33 H12         2.1168    1.1000   -1.4436 H         1 <0>         0.1152
     34 H13         2.5511   -0.2037   -0.3124 H         1 <0>         0.1620
     35 H14         2.8541    1.0488   -3.6556 H         1 <0>         0.1675
     36 H15         4.4147   -3.6104   -3.0186 H         1 <0>         0.1757
     37 H16         5.1509    0.0271   -7.5231 H         1 <0>         0.2233
     38 H17         0.1306    0.8625   -2.7498 H         1 <0>         0.4325
     39 H18         0.5294   -0.6189   -3.3509 H         1 <0>         0.4292
     40 H19        -0.9194   -0.3982   -2.5979 H         1 <0>         0.4368
@<TRIPOS>BOND
     1    1    2 1
     2    1   24 1
     3    1   25 1
     4    1   26 1
     5    2    3 1
     6    2    4 1
     7    2    5 1
     8    3   27 1
     9    3   28 1
    10    3   29 1
    11    4   30 1
    12    4   31 1
    13    4   32 1
    14    5    6 1
    15    5    7 1
    16    5   23 1
    17    7    8 1
    18    7   33 1
    19    7   34 1
    20    8   13 ar
    21    8    9 ar
    22    9   10 ar
    23    9   35 1
    24   10   22 1
    25   10   11 ar
    26   11   12 ar
    27   11   17 1
    28   12   13 ar
    29   12   36 1
    30   13   14 1
    31   14   15 2
    32   14   16 1
    33   17   18 2
    34   17   19 am
    35   19   20 1
    36   19   21 1
    37   21   22 2
    38   21   37 1
    39   23   38 1
    40   23   39 1
    41   23   40 1
@<TRIPOS>MOLECULE
ZINC02839653
   35    38     0     0     0
SMALL
USER_CHARGES
amino-methyl-dioxo-BLAHcarbonitrile
@<TRIPOS>ATOM
      1 C1         -5.4857    3.7331   -4.7052 C.3       1 <0>        -0.1190
      2 C2         -4.6577    3.8350   -3.4502 C.2       1 <0>         0.1805
      3 C3         -5.1904    3.4224   -2.2858 C.2       1 <0>        -0.2530
      4 C4         -4.4259    3.5110   -1.1002 C.2       1 <0>         0.2511
      5 C5         -3.1473    4.0236   -1.1844 C.2       1 <0>        -0.2891
      6 C6         -2.6630    4.4329   -2.4316 C.2       1 <0>         0.5161
      7 O1         -1.5343    4.8877   -2.5179 O.2       1 <0>        -0.4509
      8 O2         -3.4200    4.3324   -3.5330 O.3       1 <0>        -0.2442
      9 C7         -2.2911    4.1392    0.0433 C.3       1 <0>         0.1130
     10 C8         -1.1962    3.1178    0.0289 C.ar      1 <0>        -0.1416
     11 C9         -1.2343    1.7402    0.0174 C.ar      1 <0>        -0.0477
     12 C10        -0.0126    1.0758    0.0080 C.ar      1 <0>        -0.1494
     13 C11         1.1814    1.7678    0.0003 C.ar      1 <0>        -0.0780
     14 C12         1.2273    3.1531    0.0072 C.ar      1 <0>        -0.1420
     15 C13         0.0077    3.8321    0.0217 C.ar      1 <0>         0.1685
     16 N1         -0.2405    5.1931    0.0308 N.am      1 <0>        -0.6495
     17 C14        -1.5615    5.4668    0.0436 C.2       1 <0>         0.5501
     18 O3         -2.0693    6.5683    0.0537 O.2       1 <0>        -0.4852
     19 C15        -3.1266    4.0124    1.2846 C.2       1 <0>        -0.2454
     20 C16        -4.3844    3.5111    1.2323 C.2       1 <0>         0.4425
     21 O4         -4.9399    3.1041    0.0770 O.3       1 <0>        -0.2255
     22 N2         -5.1125    3.4154    2.3919 N.pl3     1 <0>        -0.8200
     23 C17        -2.5859    4.4286    2.5436 C.1       1 <0>         0.2653
     24 N3         -2.1570    4.7587    3.5424 N.1       1 <0>        -0.4195
     25 H1         -4.9099    4.1070   -5.5518 H         1 <0>         0.0947
     26 H2         -5.7539    2.6912   -4.8800 H         1 <0>         0.1082
     27 H3         -6.3923    4.3275   -4.5916 H         1 <0>         0.1077
     28 H4         -6.1948    3.0265   -2.2571 H         1 <0>         0.1771
     29 H5         -2.1702    1.2012    0.0193 H         1 <0>         0.1309
     30 H6          0.0021   -0.0041    0.0020 H         1 <0>         0.1269
     31 H7          2.1081    1.2132   -0.0111 H         1 <0>         0.1283
     32 H8          2.1672    3.6850    0.0020 H         1 <0>         0.1360
     33 H9          0.4535    5.8708    0.0281 H         1 <0>         0.4172
     34 H10        -6.0141    3.0583    2.3704 H         1 <0>         0.4159
     35 H11        -4.7254    3.7048    3.2329 H         1 <0>         0.4300
@<TRIPOS>BOND
     1    1    2 1
     2    1   25 1
     3    1   26 1
     4    1   27 1
     5    2    8 1
     6    2    3 2
     7    3    4 1
     8    3   28 1
     9    4   21 1
    10    4    5 2
    11    5    6 1
    12    5    9 1
    13    6    7 2
    14    6    8 1
    15    9   17 1
    16    9   10 1
    17    9   19 1
    18   10   15 ar
    19   10   11 ar
    20   11   12 ar
    21   11   29 1
    22   12   13 ar
    23   12   30 1
    24   13   14 ar
    25   13   31 1
    26   14   15 ar
    27   14   32 1
    28   15   16 1
    29   16   17 am
    30   16   33 1
    31   17   18 2
    32   19   20 2
    33   19   23 1
    34   20   21 1
    35   20   22 1
    36   22   34 1
    37   22   35 1
    38   23   24 3
@<TRIPOS>MOLECULE
ZINC39325323
   31    33     0     0     0
SMALL
USER_CHARGES

@<TRIPOS>ATOM
      1 C1         -0.0167    1.3780    0.0096 C.ar      1 <0>        -0.1265
      2 C2          1.1706    2.0866    0.0021 C.ar      1 <0>        -0.0810
      3 C3          2.3773    1.4137   -0.0131 C.ar      1 <0>        -0.1502
      4 C4          2.3974    0.0291   -0.0207 C.ar      1 <0>         0.1248
      5 C5          1.2080   -0.6793   -0.0132 C.ar      1 <0>        -0.1176
      6 C6          0.0021   -0.0041    0.0020 C.ar      1 <0>        -0.0769
      7 C7          1.2281   -2.1862   -0.0220 C.3       1 <0>         0.0599
      8 H1          2.2603   -2.5362   -0.0340 H         1 <0>         0.1077
      9 C8          0.5228   -2.7150    1.2335 C.3       1 <0>        -0.1451
     10 H2         -0.3936   -2.1495    1.4024 H         1 <0>         0.1744
     11 C9          1.4273   -2.5723    2.4226 C.2       1 <0>         0.5301
     12 O1          1.8274   -1.4709    2.7335 O.2       1 <0>        -0.4528
     13 N1          1.8032   -3.6358    3.1504 N.am      1 <0>        -0.6847
     14 C10         1.3926   -4.8756    2.8396 C.2       1 <0>         0.6892
     15 O2          1.7362   -5.8078    3.5416 O.2       1 <0>        -0.4532
     16 N2          0.6125   -5.1116    1.7742 N.2       1 <0>        -0.5209
     17 C11         0.1835   -4.1660    0.9913 C.2       1 <0>         0.4528
     18 O3         -0.5797   -4.4482   -0.0880 O.3       1 <0>        -0.2229
     19 C12        -0.3136   -3.7589   -1.2192 C.2       1 <0>         0.4442
     20 C13         0.5123   -2.6909   -1.2457 C.2       1 <0>        -0.2687
     21 C14         0.7146   -2.0096   -2.4889 C.1       1 <0>         0.2673
     22 N3          0.8751   -1.4692   -3.4751 N.1       1 <0>        -0.4192
     23 N4         -0.9064   -4.1613   -2.3900 N.pl3     1 <0>        -0.8172
     24 F1          3.5766   -0.6299   -0.0360 F         1 <0>        -0.1351
     25 H3         -0.9594    1.9048    0.0260 H         1 <0>         0.1327
     26 H4          1.1547    3.1665    0.0077 H         1 <0>         0.1349
     27 H5          3.3046    1.9675   -0.0193 H         1 <0>         0.1379
     28 H6         -0.9259   -0.5565    0.0083 H         1 <0>         0.1325
     29 H7          2.3832   -3.5057    3.9169 H         1 <0>         0.4329
     30 H8         -1.5026   -4.9264   -2.3938 H         1 <0>         0.4186
     31 H9         -0.7292   -3.6805   -3.2136 H         1 <0>         0.4319
@<TRIPOS>BOND
     1    1    6 ar
     2    1    2 ar
     3    1   25 1
     4    2    3 ar
     5    2   26 1
     6    3    4 ar
     7    3   27 1
     8    4    5 ar
     9    4   24 1
    10    5    6 ar
    11    5    7 1
    12    6   28 1
    13    7    8 1
    14    7   20 1
    15    7    9 1
    16    9   10 1
    17    9   17 1
    18    9   11 1
    19   11   12 2
    20   11   13 am
    21   13   14 am
    22   13   29 1
    23   14   15 2
    24   14   16 1
    25   16   17 2
    26   17   18 1
    27   18   19 1
    28   19   20 2
    29   19   23 1
    30   20   21 1
    31   21   22 3
    32   23   30 1
    33   23   31 1
@<TRIPOS>MOLECULE
ZINC48952877
   39    40     0     0     0
SMALL
USER_CHARGES

@<TRIPOS>ATOM
      1 C1         -0.0183    1.4964    0.0103 C.3       1 <0>        -0.0953
      2 C2          1.4110    2.0430   -0.0004 C.3       1 <0>        -0.1006
      3 C3          2.1915    1.3384   -1.1172 C.3       1 <0>        -0.0972
      4 H1          1.6405    1.4159   -2.0545 H         1 <0>         0.1078
      5 C4          2.3558   -0.1349   -0.7376 C.3       1 <0>        -0.0827
      6 C5          1.0334   -0.7136   -0.3275 C.2       1 <0>        -0.1611
      7 C6          0.0021   -0.0041    0.0020 C.2       1 <0>        -0.1482
      8 C7          3.5462    1.9804   -1.2713 C.2       1 <0>         0.5218
      9 O1          3.8608    2.9108   -0.5598 O.2       1 <0>        -0.5224
     10 N1          4.4080    1.5207   -2.1999 N.am      1 <0>        -0.5335
     11 N2          5.6674    2.1176   -2.3432 N.am      1 <0>        -0.5296
     12 C8          6.5293    1.6579   -3.2718 C.2       1 <0>         0.7145
     13 O2          7.6223    2.1759   -3.3962 O.2       1 <0>        -0.5635
     14 N3          6.1797    0.6240   -4.0626 N.am      1 <0>        -0.7343
     15 C9          7.1166    0.1243   -5.0720 C.3       1 <0>         0.1644
     16 H2          7.6962    0.9567   -5.4710 H         1 <0>         0.1178
     17 C10         8.0675   -0.8962   -4.4250 C.3       1 <0>        -0.1477
     18 C11         8.8311   -1.6347   -5.5612 C.3       1 <0>        -0.5689
     19 S1          7.4726   -1.8684   -6.7838 S.o2      1 <0>         2.3798
     20 O3          7.9552   -1.5405   -8.0795 O.2       1 <0>        -0.9291
     21 O4          6.8651   -3.1339   -6.5635 O.2       1 <0>        -0.9287
     22 C12         6.3250   -0.5476   -6.2197 C.3       1 <0>        -0.6021
     23 H3         -0.5320    1.8459    0.9058 H         1 <0>         0.0802
     24 H4         -0.5490    1.8554   -0.8715 H         1 <0>         0.0779
     25 H5          1.3913    3.1165   -0.1883 H         1 <0>         0.0789
     26 H6          1.8863    1.8447    0.9602 H         1 <0>         0.0746
     27 H7          2.7422   -0.6877   -1.5938 H         1 <0>         0.0765
     28 H8          3.0592   -0.2182    0.0909 H         1 <0>         0.0822
     29 H9          0.9360   -1.7890   -0.3059 H         1 <0>         0.1102
     30 H10        -0.8997   -0.5243    0.2892 H         1 <0>         0.1074
     31 H11         4.1564    0.7766   -2.7691 H         1 <0>         0.4187
     32 H12         5.9190    2.8617   -1.7741 H         1 <0>         0.4462
     33 H13         5.3077    0.2108   -3.9634 H         1 <0>         0.3957
     34 H14         8.7778   -0.3798   -3.7793 H         1 <0>         0.1099
     35 H15         7.4936   -1.6147   -3.8398 H         1 <0>         0.0925
     36 H16         9.6270   -1.0124   -5.9704 H         1 <0>         0.1446
     37 H17         9.2204   -2.5927   -5.2166 H         1 <0>         0.1466
     38 H18         5.3945   -0.9766   -5.8480 H         1 <0>         0.1451
     39 H19         6.1305    0.1632   -7.0229 H         1 <0>         0.1517
@<TRIPOS>BOND
     1    1    7 1
     2    1    2 1
     3    1   23 1
     4    1   24 1
     5    2    3 1
     6    2   25 1
     7    2   26 1
     8    3    4 1
     9    3    5 1
    10    3    8 1
    11    5    6 1
    12    5   27 1
    13    5   28 1
    14    6    7 2
    15    6   29 1
    16    7   30 1
    17    8    9 2
    18    8   10 am
    19   10   11 1
    20   10   31 1
    21   11   12 am
    22   11   32 1
    23   12   13 2
    24   12   14 am
    25   14   15 1
    26   14   33 1
    27   15   16 1
    28   15   22 1
    29   15   17 1
    30   17   18 1
    31   17   34 1
    32   17   35 1
    33   18   19 1
    34   18   36 1
    35   18   37 1
    36   19   20 2
    37   19   21 2
    38   19   22 1
    39   22   38 1
    40   22   39 1
@<TRIPOS>MOLECULE
ZINC26104444
   38    39     0     0     0
SMALL
USER_CHARGES

@<TRIPOS>ATOM
      1 C1         -0.0187    1.5258    0.0104 C.3       1 <0>        -0.1546
      2 C2          0.0021   -0.0041    0.0020 C.3       1 <0>        -0.0883
      3 C3         -1.4333   -0.5336    0.0129 C.3       1 <0>        -0.1615
      4 C4          0.7182   -0.4975   -1.2568 C.3       1 <0>        -0.1069
      5 H1          1.7408   -0.1202   -1.2645 H         1 <0>         0.1318
      6 C5         -0.0107    0.0017   -2.4777 C.2       1 <0>         0.5459
      7 O1         -0.8350   -0.7016   -3.0214 O.2       1 <0>        -0.4432
      8 N1          0.2539    1.2301   -2.9651 N.am      1 <0>        -0.6840
      9 C6         -0.3980    1.6766   -4.0570 C.2       1 <0>         0.6973
     10 O2         -1.2244    0.9715   -4.6021 O.2       1 <0>        -0.5278
     11 N2         -0.1335    2.9049   -4.5445 N.am      1 <0>        -0.8547
     12 S1          0.7428   -2.3113   -1.2668 S.3       1 <0>         0.0780
     13 C7          1.7425   -2.7317    0.1220 C.2       1 <0>         0.3618
     14 N3          2.2383   -1.7669    0.8489 N.2       1 <0>        -0.5202
     15 C8          3.0218   -2.0139    1.9407 C.2       1 <0>         0.1752
     16 C9          3.6199   -1.0909    2.8106 C.2       1 <0>        -0.1586
     17 C10         4.3689   -1.5218    3.8480 C.2       1 <0>        -0.1260
     18 S2          4.2898   -3.2973    3.6803 S.3       1 <0>         0.1714
     19 C11         3.2629   -3.3677    2.2360 C.2       1 <0>        -0.3231
     20 C12         2.7312   -4.3906    1.4549 C.2       1 <0>         0.5841
     21 O3          2.9485   -5.5606    1.7231 O.2       1 <0>        -0.5159
     22 N4          1.9598   -4.0524    0.3939 N.am      1 <0>        -0.5133
     23 C13         1.3711   -5.0907   -0.4555 C.3       1 <0>         0.0577
     24 H2          1.0039    1.9031    0.0027 H         1 <0>         0.0633
     25 H3         -0.5459    1.8868   -0.8726 H         1 <0>         0.0554
     26 H4         -0.5289    1.8773    0.9072 H         1 <0>         0.0710
     27 H5          0.5293   -0.3651    0.8851 H         1 <0>         0.1108
     28 H6         -1.9605   -0.1726   -0.8702 H         1 <0>         0.0603
     29 H7         -1.4185   -1.6235    0.0069 H         1 <0>         0.0697
     30 H8         -1.9435   -0.1821    0.9097 H         1 <0>         0.0650
     31 H9          0.9134    1.7928   -2.5301 H         1 <0>         0.4128
     32 H10         0.5261    3.4677   -4.1094 H         1 <0>         0.4009
     33 H11        -0.6026    3.2263   -5.3303 H         1 <0>         0.4230
     34 H12         3.4814   -0.0319    2.6500 H         1 <0>         0.1494
     35 H13         4.8873   -0.9375    4.5938 H         1 <0>         0.2042
     36 H14         2.0611   -5.3336   -1.2635 H         1 <0>         0.0883
     37 H15         1.1811   -5.9832    0.1406 H         1 <0>         0.1048
     38 H16         0.4330   -4.7278   -0.8755 H         1 <0>         0.0958
@<TRIPOS>BOND
     1    1    2 1
     2    1   24 1
     3    1   25 1
     4    1   26 1
     5    2    3 1
     6    2    4 1
     7    2   27 1
     8    3   28 1
     9    3   29 1
    10    3   30 1
    11    4    5 1
    12    4    6 1
    13    4   12 1
    14    6    7 2
    15    6    8 am
    16    8    9 am
    17    8   31 1
    18    9   10 2
    19    9   11 am
    20   11   32 1
    21   11   33 1
    22   12   13 1
    23   13   22 1
    24   13   14 2
    25   14   15 1
    26   15   19 2
    27   15   16 1
    28   16   17 2
    29   16   34 1
    30   17   18 1
    31   17   35 1
    32   18   19 1
    33   19   20 1
    34   20   21 2
    35   20   22 am
    36   22   23 1
    37   23   36 1
    38   23   37 1
    39   23   38 1
@<TRIPOS>MOLECULE
ZINC14852066
   48    49     0     0     0
SMALL
USER_CHARGES

@<TRIPOS>ATOM
      1 C1         -0.0187    1.5258    0.0104 C.3       1 <0>        -0.1902
      2 C2          0.0021   -0.0041    0.0020 C.3       1 <0>         0.1099
      3 H1         -1.0213   -0.3792    0.0098 H         1 <0>         0.1225
      4 C3          0.7117   -0.4941   -1.2603 C.3       1 <0>        -0.1315
      5 C4          1.3803    0.6570   -1.9583 C.2       1 <0>        -0.0692
      6 C5          2.7017    0.8181   -1.8493 C.2       1 <0>        -0.2242
      7 C6          3.3680    1.9252   -2.5435 C.2       1 <0>         0.3696
      8 O1          2.7115    2.7060   -3.2003 O.2       1 <0>        -0.4479
      9 C7          4.8559    2.0998   -2.4470 C.3       1 <0>         0.0704
     10 H2          5.3262    1.1283   -2.2950 H         1 <0>         0.0907
     11 C8          5.1895    3.0179   -1.2680 C.3       1 <0>         0.1256
     12 H3          5.7479    3.8823   -1.6273 H         1 <0>         0.0798
     13 C9          6.0360    2.2514   -0.2480 C.3       1 <0>        -0.1248
     14 C10         5.2825    2.1507    1.0538 C.2       1 <0>        -0.1283
     15 C11         4.6042    1.0526    1.3362 C.2       1 <0>        -0.1087
     16 C12         3.8388    0.8902    2.5804 C.ar      1 <0>         0.0721
     17 C13         4.3861    1.3164    3.7898 C.ar      1 <0>        -0.1728
     18 C14         3.6817    1.1455    4.9738 C.ar      1 <0>         0.1859
     19 C15         2.4255    0.5534    4.9682 C.ar      1 <0>        -0.2571
     20 C16         1.8630    0.1324    3.7761 C.ar      1 <0>         0.2113
     21 C17         2.5606    0.2946    2.5690 C.ar      1 <0>        -0.2000
     22 C18         1.9781   -0.1421    1.2956 C.2       1 <0>         0.5268
     23 O2          2.6973   -0.2041    0.3174 O.2       1 <0>        -0.4835
     24 O3          0.6878   -0.4748    1.1642 O.3       1 <0>        -0.3491
     25 O4          0.6328   -0.4392    3.7740 O.3       1 <0>        -0.4807
     26 O5          4.2252    1.5601    6.1463 O.3       1 <0>        -0.3078
     27 C19         3.4497    1.3557    7.3291 C.3       1 <0>         0.0221
     28 O6          3.9788    3.4568   -0.6486 O.3       1 <0>        -0.5534
     29 O7          5.3461    2.6819   -3.6565 O.3       1 <0>        -0.5470
     30 H4          1.0039    1.9031    0.0027 H         1 <0>         0.0708
     31 H5         -0.5459    1.8868   -0.8726 H         1 <0>         0.0797
     32 H6         -0.5289    1.8773    0.9072 H         1 <0>         0.0648
     33 H7          1.4619   -1.2365   -0.9879 H         1 <0>         0.1008
     34 H8         -0.0172   -0.9492   -1.9309 H         1 <0>         0.0831
     35 H9          0.7985    1.3591   -2.5388 H         1 <0>         0.1164
     36 H10         3.2734    0.1369   -1.2412 H         1 <0>         0.1643
     37 H11         6.2432    1.2504   -0.6265 H         1 <0>         0.0830
     38 H12         6.9752    2.7800   -0.0845 H         1 <0>         0.0857
     39 H13         5.2989    2.9862    1.7379 H         1 <0>         0.1128
     40 H14         4.6552    0.2260    0.6308 H         1 <0>         0.1420
     41 H15         5.3612    1.7805    3.8056 H         1 <0>         0.1441
     42 H16         1.8873    0.4210    5.8951 H         1 <0>         0.1447
     43 H17        -0.0933    0.1904    3.6668 H         1 <0>         0.4007
     44 H18         2.5035    1.8894    7.2399 H         1 <0>         0.0607
     45 H19         3.2556    0.2907    7.4566 H         1 <0>         0.0615
     46 H20         3.9986    1.7309    8.1928 H         1 <0>         0.1065
     47 H21         4.1144    4.0435    0.1081 H         1 <0>         0.3819
     48 H22         5.1714    2.1527   -4.4467 H         1 <0>         0.3861
@<TRIPOS>BOND
     1    1    2 1
     2    1   30 1
     3    1   31 1
     4    1   32 1
     5    2    3 1
     6    2   24 1
     7    2    4 1
     8    4    5 1
     9    4   33 1
    10    4   34 1
    11    5    6 2
    12    5   35 1
    13    6    7 1
    14    6   36 1
    15    7    8 2
    16    7    9 1
    17    9   10 1
    18    9   11 1
    19    9   29 1
    20   11   12 1
    21   11   13 1
    22   11   28 1
    23   13   14 1
    24   13   37 1
    25   13   38 1
    26   14   15 2
    27   14   39 1
    28   15   16 1
    29   15   40 1
    30   16   21 ar
    31   16   17 ar
    32   17   18 ar
    33   17   41 1
    34   18   19 ar
    35   18   26 1
    36   19   20 ar
    37   19   42 1
    38   20   21 ar
    39   20   25 1
    40   21   22 1
    41   22   23 2
    42   22   24 1
    43   25   43 1
    44   26   27 1
    45   27   44 1
    46   27   45 1
    47   27   46 1
    48   28   47 1
    49   29   48 1
@<TRIPOS>MOLECULE
ZINC67537957
   46    47     0     0     0
SMALL
USER_CHARGES

@<TRIPOS>ATOM
      1 C1         -0.1870    1.4425    0.3892 C.3       1 <0>        -0.1644
      2 C2         -0.0774   -0.0782    0.2608 C.3       1 <0>         0.1442
      3 H1          0.4124   -0.3290   -0.6801 H         1 <0>         0.1169
      4 C3          0.7324   -0.6222    1.4094 C.2       1 <0>         0.5160
      5 O1          0.1725   -1.0808    2.3826 O.2       1 <0>        -0.5277
      6 N1          2.0789   -0.5991    1.3551 N.am      1 <0>        -0.6117
      7 C4          2.7460    0.0648    0.2341 C.3       1 <0>         0.0965
      8 C5          3.5133    1.2882    0.7483 C.3       1 <0>        -0.1057
      9 S1          4.6886    0.7435    2.0240 S.3       1 <0>        -0.2480
     10 C6          3.6367   -0.1696    3.1926 C.3       1 <0>        -0.1012
     11 C7          2.8563   -1.2330    2.4211 C.3       1 <0>         0.1086
     12 N2         -1.4181   -0.6682    0.2859 N.am      1 <0>        -0.7257
     13 C8         -2.1381   -0.7537   -0.8503 C.2       1 <0>         0.7101
     14 O2         -1.6750   -0.3411   -1.8959 O.2       1 <0>        -0.5664
     15 N3         -3.3715   -1.2965   -0.8272 N.am      1 <0>        -0.6832
     16 C9         -4.1566   -1.2925   -1.9795 C.ar      1 <0>         0.1908
     17 C10        -3.5617   -1.4656   -3.2253 C.ar      1 <0>        -0.1270
     18 C11        -4.3339   -1.4622   -4.3649 C.ar      1 <0>        -0.0374
     19 C12        -5.7169   -1.2851   -4.2695 C.ar      1 <0>        -0.1553
     20 C13        -6.3113   -1.1120   -3.0165 C.ar      1 <0>        -0.0650
     21 C14        -5.5338   -1.1213   -1.8805 C.ar      1 <0>        -0.1539
     22 C15        -6.5478   -1.2804   -5.4891 C.2       1 <0>         0.5587
     23 O3         -6.0293   -1.4307   -6.5786 O.2       1 <0>        -0.5353
     24 N4         -7.8814   -1.1096   -5.3954 N.am      1 <0>        -0.7333
     25 C16        -8.7062   -1.1049   -6.6061 C.3       1 <0>         0.0865
     26 H2          0.8114    1.8740    0.4605 H         1 <0>         0.0726
     27 H3         -0.6952    1.8454   -0.4869 H         1 <0>         0.0820
     28 H4         -0.7552    1.6914    1.2854 H         1 <0>         0.0685
     29 H5          3.4421   -0.6291   -0.2370 H         1 <0>         0.0941
     30 H6          2.0010    0.3832   -0.4951 H         1 <0>         0.1033
     31 H7          4.0562    1.7521   -0.0752 H         1 <0>         0.1235
     32 H8          2.8133    2.0049    1.1779 H         1 <0>         0.0895
     33 H9          4.2595   -0.6478    3.9486 H         1 <0>         0.1207
     34 H10         2.9393    0.5179    3.6711 H         1 <0>         0.0881
     35 H11         2.1825   -1.7519    3.1029 H         1 <0>         0.1074
     36 H12         3.5543   -1.9481    1.9857 H         1 <0>         0.0888
     37 H13        -1.7876   -0.9974    1.1201 H         1 <0>         0.4091
     38 H14        -3.7130   -1.6900   -0.0090 H         1 <0>         0.4115
     39 H15        -2.4929   -1.6023   -3.2984 H         1 <0>         0.1479
     40 H16        -3.8714   -1.5958   -5.3317 H         1 <0>         0.1405
     41 H17        -7.3797   -0.9746   -2.9393 H         1 <0>         0.1301
     42 H18        -5.9929   -0.9917   -0.9115 H         1 <0>         0.1332
     43 H19        -8.2951   -0.9897   -4.5262 H         1 <0>         0.4010
     44 H20        -8.3829   -0.2974   -7.2630 H         1 <0>         0.0618
     45 H21        -8.5987   -2.0587   -7.1227 H         1 <0>         0.0619
     46 H22        -9.7509   -0.9552   -6.3335 H         1 <0>         0.0771
@<TRIPOS>BOND
     1    1    2 1
     2    1   26 1
     3    1   27 1
     4    1   28 1
     5    2    3 1
     6    2    4 1
     7    2   12 1
     8    4    5 2
     9    4    6 am
    10    6   11 1
    11    6    7 1
    12    7    8 1
    13    7   29 1
    14    7   30 1
    15    8    9 1
    16    8   31 1
    17    8   32 1
    18    9   10 1
    19   10   11 1
    20   10   33 1
    21   10   34 1
    22   11   35 1
    23   11   36 1
    24   12   13 am
    25   12   37 1
    26   13   14 2
    27   13   15 am
    28   15   16 1
    29   15   38 1
    30   16   21 ar
    31   16   17 ar
    32   17   18 ar
    33   17   39 1
    34   18   19 ar
    35   18   40 1
    36   19   20 ar
    37   19   22 1
    38   20   21 ar
    39   20   41 1
    40   21   42 1
    41   22   23 2
    42   22   24 am
    43   24   25 1
    44   24   43 1
    45   25   44 1
    46   25   45 1
    47   25   46 1
@<TRIPOS>MOLECULE
ZINC15930214
   43    45     0     0     0
SMALL
USER_CHARGES
(5Z)-5-[[(4-hydroxy-2-methyl-phenyl)amino]methylene]-1-(p-tolyl)hexahydropyrimidine-2,4,6-trione
@<TRIPOS>ATOM
      1 C1          8.3561   -1.1015   -1.9747 C.3       1 <0>        -0.1183
      2 C2          7.5900   -0.6105   -0.7734 C.ar      1 <0>        -0.0707
      3 C3          7.4133   -1.4401    0.3187 C.ar      1 <0>        -0.1113
      4 C4          6.7124   -0.9926    1.4215 C.ar      1 <0>        -0.0850
      5 C5          6.1847    0.2915    1.4326 C.ar      1 <0>         0.1161
      6 C6          6.3584    1.1200    0.3322 C.ar      1 <0>        -0.0868
      7 C7          7.0656    0.6690   -0.7652 C.ar      1 <0>        -0.1118
      8 N1          5.4730    0.7485    2.5502 N.am      1 <0>        -0.5115
      9 C8          4.1526    0.9984    2.4336 C.2       1 <0>         0.5830
     10 O1          3.5764    0.8325    1.3748 O.2       1 <0>        -0.5120
     11 C9          3.4280    1.4832    3.6213 C.2       1 <0>        -0.4153
     12 C10         2.0745    1.7655    3.5758 C.2       1 <0>         0.3269
     13 N2          1.3634    1.4817    2.4655 N.pl3     1 <0>        -0.5971
     14 C11        -0.0243    1.6604    2.4588 C.ar      1 <0>         0.1144
     15 C12        -0.6701    2.1298    3.5957 C.ar      1 <0>        -0.1336
     16 C13        -2.0393    2.3054    3.5884 C.ar      1 <0>        -0.1154
     17 C14        -2.7705    2.0137    2.4457 C.ar      1 <0>         0.1009
     18 C15        -2.1258    1.5499    1.3083 C.ar      1 <0>        -0.1151
     19 C16        -0.7569    1.3683    1.3157 C.ar      1 <0>        -0.0845
     20 C17        -0.0575    0.8590    0.0819 C.3       1 <0>        -0.1239
     21 O2         -4.1188    2.1878    2.4390 O.3       1 <0>        -0.4954
     22 C18         4.2067    1.6483    4.8615 C.2       1 <0>         0.5901
     23 O3          3.6770    2.0404    5.8842 O.2       1 <0>        -0.5045
     24 N3          5.5227    1.3534    4.8320 N.am      1 <0>        -0.6606
     25 C19         6.1188    0.9210    3.7120 C.2       1 <0>         0.7118
     26 O4          7.3078    0.6725    3.7520 O.2       1 <0>        -0.5177
     27 H1          7.6685   -1.5752   -2.6753 H         1 <0>         0.0746
     28 H2          8.8477   -0.2591   -2.4613 H         1 <0>         0.0697
     29 H3          9.1062   -1.8254   -1.6562 H         1 <0>         0.0699
     30 H4          7.8241   -2.4389    0.3094 H         1 <0>         0.1319
     31 H5          6.5754   -1.6408    2.2744 H         1 <0>         0.1259
     32 H6          5.9449    2.1177    0.3360 H         1 <0>         0.1252
     33 H7          7.2049    1.3145   -1.6198 H         1 <0>         0.1316
     34 H8          1.5873    2.2132    4.4294 H         1 <0>         0.1846
     35 H9          1.8140    1.1536    1.6716 H         1 <0>         0.4332
     36 H10        -0.1010    2.3576    4.4849 H         1 <0>         0.1389
     37 H11        -2.5415    2.6703    4.4721 H         1 <0>         0.1408
     38 H12        -2.6951    1.3274    0.4179 H         1 <0>         0.1401
     39 H13        -0.0146   -0.2298    0.1118 H         1 <0>         0.0805
     40 H14         0.9548    1.2617    0.0457 H         1 <0>         0.0692
     41 H15        -0.6068    1.1767   -0.8044 H         1 <0>         0.0805
     42 H16        -4.4003    3.0685    2.1556 H         1 <0>         0.3941
     43 H17         6.0496    1.4563    5.6399 H         1 <0>         0.4369
@<TRIPOS>BOND
     1    1    2 1
     2    1   27 1
     3    1   28 1
     4    1   29 1
     5    2    7 ar
     6    2    3 ar
     7    3    4 ar
     8    3   30 1
     9    4    5 ar
    10    4   31 1
    11    5    6 ar
    12    5    8 1
    13    6    7 ar
    14    6   32 1
    15    7   33 1
    16    8   25 am
    17    8    9 am
    18    9   10 2
    19    9   11 1
    20   11   12 2
    21   11   22 1
    22   12   13 1
    23   12   34 1
    24   13   14 1
    25   13   35 1
    26   14   19 ar
    27   14   15 ar
    28   15   16 ar
    29   15   36 1
    30   16   17 ar
    31   16   37 1
    32   17   18 ar
    33   17   21 1
    34   18   19 ar
    35   18   38 1
    36   19   20 1
    37   20   39 1
    38   20   40 1
    39   20   41 1
    40   21   42 1
    41   22   23 2
    42   22   24 am
    43   24   25 am
    44   24   43 1
    45   25   26 2
@<TRIPOS>MOLECULE
ZINC39358604
   41    44     0     0     0
SMALL
USER_CHARGES

@<TRIPOS>ATOM
      1 C1         -0.0173    1.4248    0.0099 C.3       1 <0>         0.0236
      2 O1          0.0021   -0.0041    0.0020 O.3       1 <0>        -0.3071
      3 C2          0.6062   -0.6075   -1.0564 C.ar      1 <0>         0.1077
      4 C3          1.1729    0.1590   -2.0621 C.ar      1 <0>        -0.1661
      5 C4          1.7870   -0.4560   -3.1371 C.ar      1 <0>        -0.0294
      6 C5          1.8372   -1.8356   -3.2121 C.ar      1 <0>        -0.1413
      7 C6          1.2734   -2.6062   -2.2124 C.ar      1 <0>        -0.1052
      8 C7          0.6617   -1.9961   -1.1290 C.ar      1 <0>         0.0725
      9 O2          0.1119   -2.7526   -0.1417 O.3       1 <0>        -0.4856
     10 C8          2.4028    0.3792   -4.2300 C.3       1 <0>         0.0992
     11 H1          2.2704    1.4381   -4.0079 H         1 <0>         0.1059
     12 C9          1.7662    0.0490   -5.5465 C.2       1 <0>        -0.1724
     13 C10         0.8496    0.6197   -6.2970 C.2       1 <0>         0.1736
     14 N1          0.7317   -0.0426   -7.4803 N.2       1 <0>        -0.1465
     15 N2          1.4565   -1.0408   -7.5827 N.2       1 <0>        -0.1352
     16 C11         2.1861   -1.2025   -6.3236 C.3       1 <0>         0.2134
     17 H2          1.9162   -2.1238   -5.8073 H         1 <0>         0.1581
     18 N3          3.6343   -1.0498   -6.4823 N.pl3     1 <0>        -0.6947
     19 C12         4.3867   -0.6053   -5.4237 C.2       1 <0>         0.2641
     20 C13         3.8842    0.0566   -4.3579 C.2       1 <0>        -0.3140
     21 C14         4.7087    0.4821   -3.3023 C.2       1 <0>         0.4065
     22 O3          4.2153    1.0838   -2.3688 O.2       1 <0>        -0.4764
     23 C15         6.1871    0.2094   -3.3016 C.3       1 <0>        -0.1689
     24 C16         6.4492   -1.0715   -4.1019 C.3       1 <0>        -0.1098
     25 C17         5.8730   -0.8883   -5.5103 C.3       1 <0>        -0.1046
     26 O4          0.1241    1.7128   -5.9420 O.3       1 <0>        -0.4361
     27 H3          1.0053    1.8021    0.0021 H         1 <0>         0.0595
     28 H4         -0.5445    1.7859   -0.8732 H         1 <0>         0.0554
     29 H5         -0.5275    1.7763    0.9067 H         1 <0>         0.1021
     30 H6          1.1344    1.2368   -2.0063 H         1 <0>         0.1345
     31 H7          2.3175   -2.3124   -4.0537 H         1 <0>         0.1178
     32 H8          1.3136   -3.6837   -2.2735 H         1 <0>         0.1360
     33 H9         -0.8162   -2.9794   -0.2906 H         1 <0>         0.3857
     34 H10         4.0583   -1.2614   -7.3287 H         1 <0>         0.4192
     35 H11         6.7134    1.0441   -3.7646 H         1 <0>         0.0993
     36 H12         6.5344    0.0779   -2.2768 H         1 <0>         0.0963
     37 H13         7.5222   -1.2528   -4.1642 H         1 <0>         0.0865
     38 H14         5.9611   -1.9155   -3.6146 H         1 <0>         0.0752
     39 H15         6.0358   -1.7953   -6.0925 H         1 <0>         0.0926
     40 H16         6.3733   -0.0516   -5.9978 H         1 <0>         0.0985
     41 H17        -0.5077    2.0009   -6.6150 H         1 <0>         0.4099
@<TRIPOS>BOND
     1    1    2 1
     2    1   27 1
     3    1   28 1
     4    1   29 1
     5    2    3 1
     6    3    8 ar
     7    3    4 ar
     8    4    5 ar
     9    4   30 1
    10    5    6 ar
    11    5   10 1
    12    6    7 ar
    13    6   31 1
    14    7    8 ar
    15    7   32 1
    16    8    9 1
    17    9   33 1
    18   10   11 1
    19   10   20 1
    20   10   12 1
    21   12   16 1
    22   12   13 2
    23   13   14 1
    24   13   26 1
    25   14   15 2
    26   15   16 1
    27   16   17 1
    28   16   18 1
    29   18   19 1
    30   18   34 1
    31   19   25 1
    32   19   20 2
    33   20   21 1
    34   21   22 2
    35   21   23 1
    36   23   24 1
    37   23   35 1
    38   23   36 1
    39   24   25 1
    40   24   37 1
    41   24   38 1
    42   25   39 1
    43   25   40 1
    44   26   41 1
@<TRIPOS>MOLECULE
ZINC05817606
   39    42     0     0     0
SMALL
USER_CHARGES

@<TRIPOS>ATOM
      1 C1         -0.0187    1.5258    0.0104 C.3       1 <0>        -0.1718
      2 C2          0.0021   -0.0041    0.0020 C.3       1 <0>         0.1043
      3 N1          0.6878   -0.4765   -1.2033 N.am      1 <0>        -0.5509
      4 C3          0.0518   -0.7313   -2.4056 C.ar      1 <0>         0.1529
      5 C4         -1.2981   -0.6071   -2.7381 C.ar      1 <0>        -0.1400
      6 C5         -1.6647   -0.9334   -4.0343 C.ar      1 <0>        -0.0807
      7 C6         -0.7439   -1.3651   -4.9672 C.ar      1 <0>        -0.1462
      8 C7          0.6036   -1.4936   -4.6491 C.ar      1 <0>        -0.0439
      9 C8          0.9760   -1.1705   -3.3620 C.ar      1 <0>        -0.1326
     10 C9          2.3060   -1.1867   -2.6797 C.3       1 <0>         0.1252
     11 C10         2.0155   -0.7093   -1.2740 C.2       1 <0>         0.5396
     12 O1          2.8221   -0.5652   -0.3797 O.2       1 <0>        -0.4774
     13 C11         3.2777   -0.2590   -3.3523 C.2       1 <0>        -0.2542
     14 C12         3.2801    1.1275   -3.4185 C.2       1 <0>         0.1303
     15 N2          4.3271    1.5009   -4.1153 N.2       1 <0>        -0.2565
     16 N3          5.0266    0.3518   -4.5158 N.pl3     1 <0>        -0.4400
     17 H1          5.8408    0.3336   -5.0428 H         1 <0>         0.4498
     18 C13         4.3696   -0.7173   -4.0393 C.2       1 <0>         0.2894
     19 O2          4.6535   -2.0374   -4.1624 O.3       1 <0>        -0.2272
     20 C14         3.9875   -2.9037   -3.3722 C.2       1 <0>         0.4562
     21 C15         2.8894   -2.5728   -2.6533 C.2       1 <0>        -0.2486
     22 C16         2.2624   -3.5739   -1.8438 C.1       1 <0>         0.2664
     23 N4          1.7651   -4.3681   -1.2016 N.1       1 <0>        -0.4254
     24 N5          4.4503   -4.1936   -3.2908 N.pl3     1 <0>        -0.8236
     25 C17         2.2575    2.0444   -2.7983 C.3       1 <0>        -0.0863
     26 H2          1.0039    1.9031    0.0027 H         1 <0>         0.0629
     27 H3         -0.5459    1.8868   -0.8726 H         1 <0>         0.0634
     28 H4         -0.5289    1.8773    0.9072 H         1 <0>         0.0747
     29 H5          0.5293   -0.3651    0.8851 H         1 <0>         0.0898
     30 H6         -1.0205   -0.3814    0.0098 H         1 <0>         0.0875
     31 H7         -2.0267   -0.2711   -2.0152 H         1 <0>         0.1339
     32 H8         -2.7020   -0.8477   -4.3228 H         1 <0>         0.1271
     33 H9         -1.0770   -1.6085   -5.9653 H         1 <0>         0.1257
     34 H10         1.3259   -1.8309   -5.3778 H         1 <0>         0.1308
     35 H11         5.2359   -4.4596   -3.7937 H         1 <0>         0.4145
     36 H12         3.9917   -4.8390   -2.7304 H         1 <0>         0.4298
     37 H13         2.5696    2.3056   -1.7871 H         1 <0>         0.0842
     38 H14         2.1714    2.9508   -3.3975 H         1 <0>         0.0856
     39 H15         1.2920    1.5399   -2.7616 H         1 <0>         0.0813
@<TRIPOS>BOND
     1    1    2 1
     2    1   26 1
     3    1   27 1
     4    1   28 1
     5    2    3 1
     6    2   29 1
     7    2   30 1
     8    3   11 am
     9    3    4 1
    10    4    9 ar
    11    4    5 ar
    12    5    6 ar
    13    5   31 1
    14    6    7 ar
    15    6   32 1
    16    7    8 ar
    17    7   33 1
    18    8    9 ar
    19    8   34 1
    20    9   10 1
    21   10   21 1
    22   10   11 1
    23   10   13 1
    24   11   12 2
    25   13   18 2
    26   13   14 1
    27   14   15 2
    28   14   25 1
    29   15   16 1
    30   16   17 1
    31   16   18 1
    32   18   19 1
    33   19   20 1
    34   20   21 2
    35   20   24 1
    36   21   22 1
    37   22   23 3
    38   24   35 1
    39   24   36 1
    40   25   37 1
    41   25   38 1
    42   25   39 1
@<TRIPOS>MOLECULE
ZINC14869557
   42    44     0     0     0
SMALL
USER_CHARGES

@<TRIPOS>ATOM
      1 C1          0.2978    1.7354    0.1749 C.3       1 <0>         0.0859
      2 N1          0.3302    0.2777    0.0328 N.am      1 <0>        -0.7291
      3 C2          0.8255   -0.4854    1.0272 C.2       1 <0>         0.5632
      4 O1          1.2454    0.0360    2.0423 O.2       1 <0>        -0.5367
      5 C3          0.8581   -1.9524    0.8843 C.ar      1 <0>        -0.1678
      6 C4          0.3819   -2.5559   -0.2826 C.ar      1 <0>        -0.0611
      7 C5          0.4150   -3.9270   -0.4100 C.ar      1 <0>        -0.1438
      8 C6          0.9184   -4.7137    0.6142 C.ar      1 <0>        -0.0561
      9 C7          1.3918   -4.1332    1.7727 C.ar      1 <0>        -0.1899
     10 C8          1.3729   -2.7513    1.9170 C.ar      1 <0>         0.2235
     11 N2          1.8546   -2.1641    3.0797 N.pl3     1 <0>        -1.0400
     12 S1          3.1589   -2.8213    3.8601 S.o2      1 <0>         2.6905
     13 O2          3.4873   -1.9340    4.9203 O.2       1 <0>        -0.9429
     14 O3          2.8524   -4.1913    4.0806 O.2       1 <0>        -0.9482
     15 C9          4.5134   -2.7833    2.7339 C.ar      1 <0>        -0.6989
     16 C10         4.7349   -3.8523    1.8847 C.ar      1 <0>         0.0154
     17 C11         5.7954   -3.8260    1.0004 C.ar      1 <0>        -0.1720
     18 C12         6.6396   -2.7240    0.9647 C.ar      1 <0>         0.2223
     19 C13         6.4142   -1.6524    1.8184 C.ar      1 <0>        -0.1458
     20 C14         5.3492   -1.6823    2.6970 C.ar      1 <0>         0.0252
     21 C15         7.3299   -0.4567    1.7788 C.3       1 <0>        -0.0793
     22 C16         8.7527   -0.9131    1.4542 C.3       1 <0>        -0.1407
     23 C17         8.7363   -1.8362    0.2656 C.2       1 <0>         0.5222
     24 O4          9.6543   -1.8098   -0.5265 O.2       1 <0>        -0.5143
     25 N3          7.7149   -2.6907    0.0717 N.am      1 <0>        -0.6654
     26 H1          1.3121    2.1096    0.3137 H         1 <0>         0.0628
     27 H2         -0.1332    2.1785   -0.7229 H         1 <0>         0.0782
     28 H3         -0.3096    2.0028    1.0395 H         1 <0>         0.0638
     29 H4         -0.0048   -0.1383   -0.7769 H         1 <0>         0.4025
     30 H5         -0.0121   -1.9479   -1.0836 H         1 <0>         0.1301
     31 H6          0.0465   -4.3917   -1.3126 H         1 <0>         0.1337
     32 H7          0.9397   -5.7879    0.5048 H         1 <0>         0.1379
     33 H8          1.7821   -4.7532    2.5663 H         1 <0>         0.1697
     34 H9          1.4271   -1.3691    3.4346 H         1 <0>         0.4403
     35 H10         4.0778   -4.7089    1.9134 H         1 <0>         0.1472
     36 H11         5.9681   -4.6613    0.3380 H         1 <0>         0.1417
     37 H12         5.1715   -0.8473    3.3584 H         1 <0>         0.1490
     38 H13         6.9874    0.2378    1.0117 H         1 <0>         0.0879
     39 H14         7.3204    0.0403    2.7488 H         1 <0>         0.0996
     40 H15         9.3694   -0.0432    1.2283 H         1 <0>         0.1154
     41 H16         9.1698   -1.4374    2.3140 H         1 <0>         0.1086
     42 H17         7.7249   -3.2878   -0.6927 H         1 <0>         0.4153
@<TRIPOS>BOND
     1    1    2 1
     2    1   26 1
     3    1   27 1
     4    1   28 1
     5    2    3 am
     6    2   29 1
     7    3    4 2
     8    3    5 1
     9    5   10 ar
    10    5    6 ar
    11    6    7 ar
    12    6   30 1
    13    7    8 ar
    14    7   31 1
    15    8    9 ar
    16    8   32 1
    17    9   10 ar
    18    9   33 1
    19   10   11 1
    20   11   12 1
    21   11   34 1
    22   12   13 2
    23   12   14 2
    24   12   15 1
    25   15   20 ar
    26   15   16 ar
    27   16   17 ar
    28   16   35 1
    29   17   18 ar
    30   17   36 1
    31   18   25 1
    32   18   19 ar
    33   19   20 ar
    34   19   21 1
    35   20   37 1
    36   21   22 1
    37   21   38 1
    38   21   39 1
    39   22   23 1
    40   22   40 1
    41   22   41 1
    42   23   24 2
    43   23   25 am
    44   25   42 1
@<TRIPOS>MOLECULE
ZINC67082052
   48    49     0     0     0
SMALL
USER_CHARGES

@<TRIPOS>ATOM
      1 C1         -1.0471    1.9167    0.5343 C.3       1 <0>        -0.1105
      2 C2         -1.0001    0.4156    0.4103 C.2       1 <0>        -0.0143
      3 C3         -1.1631   -0.2236   -0.7954 C.2       1 <0>        -0.1862
      4 C4         -1.1089   -1.5778   -0.8360 C.2       1 <0>        -0.2064
      5 S1         -0.8352   -2.0271    0.7595 S.3       1 <0>         0.2064
      6 C5         -0.7838   -0.4083    1.5043 C.2       1 <0>        -0.2743
      7 C6         -0.5701   -0.0434    2.9078 C.2       1 <0>         0.6150
      8 O1         -0.5683    1.1278    3.2386 O.2       1 <0>        -0.5145
      9 N1         -0.3755   -1.0049    3.8320 N.am      1 <0>        -0.5279
     10 N2         -0.1712   -0.6561    5.1734 N.am      1 <0>        -0.5235
     11 C7          0.0234   -1.6176    6.0976 C.2       1 <0>         0.7194
     12 O2          0.2007   -1.3149    7.2618 O.2       1 <0>        -0.5656
     13 N3          0.0215   -2.9147    5.7313 N.am      1 <0>        -0.7288
     14 C8          0.2330   -3.9598    6.7359 C.3       1 <0>         0.1398
     15 H1         -0.2241   -3.6564    7.6777 H         1 <0>         0.1154
     16 C9          1.7341   -4.1722    6.9426 C.3       1 <0>        -0.1621
     17 C10        -0.3958   -5.2453    6.2635 C.2       1 <0>         0.5161
     18 O3         -0.7078   -5.3755    5.0988 O.2       1 <0>        -0.5287
     19 N4         -0.6116   -6.2502    7.1353 N.am      1 <0>        -0.6008
     20 C11        -0.3385   -6.0700    8.5677 C.3       1 <0>         0.0969
     21 C12         0.5918   -7.1929    9.0374 C.3       1 <0>        -0.1365
     22 C13        -0.0280   -8.5460    8.6810 C.3       1 <0>        -0.1224
     23 C14        -0.1856   -8.6527    7.1624 C.3       1 <0>        -0.1321
     24 C15        -1.1300   -7.5446    6.6723 C.3       1 <0>         0.1427
     25 H2         -2.1284   -7.7051    7.0794 H         1 <0>         0.0747
     26 C16        -1.1883   -7.5566    5.1435 C.3       1 <0>        -0.1395
     27 H3         -0.0453    2.3241    0.3981 H         1 <0>         0.0792
     28 H4         -1.7115    2.3237   -0.2280 H         1 <0>         0.0692
     29 H5         -1.4185    2.1882    1.5225 H         1 <0>         0.0897
     30 H6         -1.3324    0.3449   -1.6979 H         1 <0>         0.1427
     31 H7         -1.2173   -2.2207   -1.6971 H         1 <0>         0.1929
     32 H8         -0.3768   -1.9384    3.5684 H         1 <0>         0.4199
     33 H9         -0.1698    0.2774    5.4371 H         1 <0>         0.4471
     34 H10        -0.1199   -3.1561    4.8026 H         1 <0>         0.4009
     35 H11         2.2034   -3.2226    7.1998 H         1 <0>         0.0788
     36 H12         1.8921   -4.8863    7.7508 H         1 <0>         0.0759
     37 H13         2.1761   -4.5591    6.0244 H         1 <0>         0.0654
     38 H14         0.1424   -5.1053    8.7295 H         1 <0>         0.0908
     39 H15        -1.2736   -6.1127    9.1262 H         1 <0>         0.0761
     40 H16         1.5588   -7.0944    8.5440 H         1 <0>         0.0696
     41 H17         0.7253   -7.1270   10.1171 H         1 <0>         0.0799
     42 H18         0.6203   -9.3471    9.0359 H         1 <0>         0.0686
     43 H19        -1.0058   -8.6336    9.1546 H         1 <0>         0.0658
     44 H20         0.7887   -8.5405    6.6868 H         1 <0>         0.0683
     45 H21        -0.6054   -9.6258    6.9077 H         1 <0>         0.0766
     46 H22        -0.2138   -7.2804    4.7406 H         1 <0>         0.0665
     47 H23        -1.4545   -8.5555    4.7979 H         1 <0>         0.0470
     48 H24        -1.9379   -6.8424    4.8028 H         1 <0>         0.0767
@<TRIPOS>BOND
     1    1    2 1
     2    1   27 1
     3    1   28 1
     4    1   29 1
     5    2    6 2
     6    2    3 1
     7    3    4 2
     8    3   30 1
     9    4    5 1
    10    4   31 1
    11    5    6 1
    12    6    7 1
    13    7    8 2
    14    7    9 am
    15    9   10 1
    16    9   32 1
    17   10   11 am
    18   10   33 1
    19   11   12 2
    20   11   13 am
    21   13   14 1
    22   13   34 1
    23   14   15 1
    24   14   16 1
    25   14   17 1
    26   16   35 1
    27   16   36 1
    28   16   37 1
    29   17   18 2
    30   17   19 am
    31   19   24 1
    32   19   20 1
    33   20   21 1
    34   20   38 1
    35   20   39 1
    36   21   22 1
    37   21   40 1
    38   21   41 1
    39   22   23 1
    40   22   42 1
    41   22   43 1
    42   23   24 1
    43   23   44 1
    44   23   45 1
    45   24   25 1
    46   24   26 1
    47   26   46 1
    48   26   47 1
    49   26   48 1
@<TRIPOS>MOLECULE
ZINC09052187
   40    43     0     0     0
SMALL
USER_CHARGES
2-[(9-bromo-3,5-dioxabicyclo[4.4.0]deca-6,8,10-trien-7-yl)methylene]-6-ethoxy-benzofuran-3-one
@<TRIPOS>ATOM
      1 C1         -2.3973   -5.3657   -1.8131 C.3       1 <0>        -0.1546
      2 C2         -1.1629   -4.5015   -1.5480 C.3       1 <0>         0.0512
      3 O1         -1.5639   -3.1428   -1.3610 O.3       1 <0>        -0.3044
      4 C3         -0.5819   -2.2388   -1.1141 C.ar      1 <0>         0.2067
      5 C4          0.7442   -2.6595   -1.0540 C.ar      1 <0>        -0.2442
      6 C5          1.7396   -1.7577   -0.8052 C.ar      1 <0>         0.0336
      7 C6          1.4261   -0.4118   -0.6113 C.ar      1 <0>        -0.3014
      8 C7          0.0929    0.0244   -0.6699 C.ar      1 <0>         0.1784
      9 C8         -0.9076   -0.9059   -0.9243 C.ar      1 <0>        -0.1767
     10 O2          0.0395    1.3563   -0.4520 O.3       1 <0>        -0.2104
     11 C9          1.2697    1.8818   -0.2424 C.2       1 <0>        -0.0402
     12 C10         1.5533    3.1866    0.0043 C.2       1 <0>        -0.0054
     13 C11         0.4946    4.1981   -0.0903 C.ar      1 <0>        -0.0977
     14 C12        -0.8512    3.8122   -0.0797 C.ar      1 <0>        -0.0299
     15 C13        -1.8391    4.7694   -0.1628 C.ar      1 <0>        -0.1245
     16 C14        -1.5062    6.1107   -0.2708 C.ar      1 <0>        -0.0294
     17 C15        -0.1813    6.5060   -0.2894 C.ar      1 <0>        -0.2031
     18 C16         0.8254    5.5600   -0.1981 C.ar      1 <0>         0.1781
     19 O3          2.1301    5.9346   -0.2076 O.3       1 <0>        -0.3204
     20 C17         2.4205    7.2550   -0.6749 C.3       1 <0>         0.2202
     21 O4          1.5237    8.1726   -0.0373 O.3       1 <0>        -0.3798
     22 C18         0.1574    7.9706   -0.4110 C.3       1 <0>         0.1028
     23 Br1        -3.6572    4.2500   -0.1384 Br        1 <0>        -0.0361
     24 C19         2.2423    0.7833   -0.3304 C.2       1 <0>         0.4199
     25 O5          3.4527    0.8464   -0.2002 O.2       1 <0>        -0.4202
     26 H1         -3.0757   -5.3009   -0.9624 H         1 <0>         0.0687
     27 H2         -2.9042   -5.0098   -2.7100 H         1 <0>         0.0686
     28 H3         -2.0915   -6.4022   -1.9557 H         1 <0>         0.0826
     29 H4         -0.4845   -4.5664   -2.3987 H         1 <0>         0.0689
     30 H5         -0.6560   -4.8575   -0.6511 H         1 <0>         0.0691
     31 H6          0.9862   -3.7013   -1.2042 H         1 <0>         0.1432
     32 H7          2.7676   -2.0857   -0.7590 H         1 <0>         0.1404
     33 H8         -1.9391   -0.5899   -0.9729 H         1 <0>         0.1494
     34 H9          2.5581    3.4799    0.2702 H         1 <0>         0.1723
     35 H10        -1.1144    2.7676   -0.0017 H         1 <0>         0.1607
     36 H11        -2.2877    6.8528   -0.3408 H         1 <0>         0.1436
     37 H12         3.4490    7.5142   -0.4235 H         1 <0>         0.1499
     38 H13         2.2857    7.2987   -1.7556 H         1 <0>         0.0702
     39 H14        -0.4894    8.5495    0.2482 H         1 <0>         0.1206
     40 H15         0.0103    8.2943   -1.4413 H         1 <0>         0.0795
@<TRIPOS>BOND
     1    1    2 1
     2    1   26 1
     3    1   27 1
     4    1   28 1
     5    2    3 1
     6    2   29 1
     7    2   30 1
     8    3    4 1
     9    4    9 ar
    10    4    5 ar
    11    5    6 ar
    12    5   31 1
    13    6    7 ar
    14    6   32 1
    15    7   24 1
    16    7    8 ar
    17    8    9 ar
    18    8   10 1
    19    9   33 1
    20   10   11 1
    21   11   12 2
    22   11   24 1
    23   12   13 1
    24   12   34 1
    25   13   18 ar
    26   13   14 ar
    27   14   15 ar
    28   14   35 1
    29   15   16 ar
    30   15   23 1
    31   16   17 ar
    32   16   36 1
    33   17   22 1
    34   17   18 ar
    35   18   19 1
    36   19   20 1
    37   20   21 1
    38   20   37 1
    39   20   38 1
    40   21   22 1
    41   22   39 1
    42   22   40 1
    43   24   25 2
@<TRIPOS>MOLECULE
ZINC20909816
   58    61     0     0     0
SMALL
USER_CHARGES
3-[(3R)-1-(3,6-dimethylbenzofuran-2-carbonyl)-3-piperidyl]-1-pyrrolidin-1-yl-propan-1-one
@<TRIPOS>ATOM
      1 C1         -1.6688   -3.3484   -0.7255 C.3       1 <0>        -0.1196
      2 C2         -0.6109   -2.3056   -0.4717 C.ar      1 <0>        -0.0444
      3 C3          0.6771   -2.7017   -0.1375 C.ar      1 <0>        -0.1379
      4 C4          1.6491   -1.7705    0.0957 C.ar      1 <0>        -0.0523
      5 C5          1.3433   -0.4109   -0.0024 C.ar      1 <0>        -0.1495
      6 C6          2.1100    0.8218    0.1749 C.2       1 <0>        -0.0659
      7 C7          1.2437    1.8408   -0.0606 C.2       1 <0>        -0.0459
      8 O1          0.0264    1.3432   -0.3634 O.3       1 <0>        -0.1780
      9 C8          0.0393   -0.0036   -0.3405 C.ar      1 <0>         0.0716
     10 C9         -0.9329   -0.9697   -0.5736 C.ar      1 <0>        -0.1177
     11 C10         1.5810    3.2699    0.0045 C.2       1 <0>         0.6037
     12 O2          2.7397    3.6159    0.1369 O.2       1 <0>        -0.5160
     13 N1          0.6065    4.1969   -0.0824 N.am      1 <0>        -0.6009
     14 C11        -0.8078    3.7990   -0.0782 C.3       1 <0>         0.0897
     15 C12        -1.5327    4.5830    1.0263 C.3       1 <0>        -0.1337
     16 C13        -1.3023    6.0812    0.8156 C.3       1 <0>        -0.1169
     17 C14         0.1942    6.3873    0.9109 C.3       1 <0>        -0.1008
     18 H1          0.5715    6.0764    1.8963 H         1 <0>         0.0784
     19 C15         0.9385    5.6242   -0.1893 C.3       1 <0>         0.1119
     20 C16         0.4204    7.8899    0.7328 C.3       1 <0>        -0.0971
     21 C17         1.9007    8.2118    0.9478 C.3       1 <0>        -0.1406
     22 C18         2.1235    9.6919    0.7724 C.2       1 <0>         0.5277
     23 O3          1.1903   10.4178    0.5020 O.2       1 <0>        -0.5399
     24 N2          3.3598   10.2089    0.9160 N.am      1 <0>        -0.6247
     25 C19         4.5735    9.4483    1.2476 C.3       1 <0>         0.0934
     26 C20         5.7384   10.4570    1.3300 C.3       1 <0>        -0.1361
     27 C21         5.0130   11.8005    1.6061 C.3       1 <0>        -0.1292
     28 C22         3.7181   11.6318    0.7728 C.3       1 <0>         0.1059
     29 C23         3.5666    0.9378    0.5435 C.3       1 <0>        -0.1115
     30 H2         -1.2333   -4.3507   -0.5997 H         1 <0>         0.0722
     31 H3         -2.0510   -3.2408   -1.7513 H         1 <0>         0.0760
     32 H4         -2.4942   -3.2149   -0.0107 H         1 <0>         0.0761
     33 H5          0.9122   -3.7531   -0.0616 H         1 <0>         0.1328
     34 H6          2.6495   -2.0840    0.3554 H         1 <0>         0.1312
     35 H7         -1.9383   -0.6737   -0.8343 H         1 <0>         0.1349
     36 H8         -1.2560    4.0278   -1.0564 H         1 <0>         0.0740
     37 H9         -0.8843    2.7191    0.1165 H         1 <0>         0.1096
     38 H10        -2.6102    4.3660    0.9831 H         1 <0>         0.0802
     39 H11        -1.1375    4.2836    2.0082 H         1 <0>         0.0680
     40 H12        -1.6731    6.3730   -0.1781 H         1 <0>         0.0686
     41 H13        -1.8418    6.6475    1.5891 H         1 <0>         0.0713
     42 H14         2.0235    5.7584   -0.0676 H         1 <0>         0.0972
     43 H15         0.6311    5.9992   -1.1767 H         1 <0>         0.0740
     44 H16         0.1244    8.1872   -0.2840 H         1 <0>         0.0748
     45 H17        -0.1852    8.4414    1.4670 H         1 <0>         0.0775
     46 H18         2.1967    7.9144    1.9646 H         1 <0>         0.0946
     47 H19         2.5063    7.6603    0.2136 H         1 <0>         0.0954
     48 H20         4.4347    8.9389    2.2126 H         1 <0>         0.0692
     49 H21         4.7641    8.7015    0.4628 H         1 <0>         0.0704
     50 H22         6.4178   10.1667    2.1450 H         1 <0>         0.0840
     51 H23         6.2887   10.4603    0.3775 H         1 <0>         0.0778
     52 H24         4.8251   11.9007    2.6853 H         1 <0>         0.0778
     53 H25         5.6436   12.6346    1.2648 H         1 <0>         0.0868
     54 H26         3.8844   11.8629   -0.2897 H         1 <0>         0.0692
     55 H27         2.9000   12.2567    1.1603 H         1 <0>         0.0793
     56 H28         3.8471    1.9999    0.5997 H         1 <0>         0.1020
     57 H29         4.1792    0.4366   -0.2204 H         1 <0>         0.0767
     58 H30         3.7367    0.4615    1.5203 H         1 <0>         0.0747
@<TRIPOS>BOND
     1    1    2 1
     2    1   30 1
     3    1   31 1
     4    1   32 1
     5    2   10 ar
     6    2    3 ar
     7    3    4 ar
     8    3   33 1
     9    4    5 ar
    10    4   34 1
    11    5    9 ar
    12    5    6 1
    13    6    7 2
    14    6   29 1
    15    7    8 1
    16    7   11 1
    17    8    9 1
    18    9   10 ar
    19   10   35 1
    20   11   12 2
    21   11   13 am
    22   13   19 1
    23   13   14 1
    24   14   15 1
    25   14   36 1
    26   14   37 1
    27   15   16 1
    28   15   38 1
    29   15   39 1
    30   16   17 1
    31   16   40 1
    32   16   41 1
    33   17   18 1
    34   17   19 1
    35   17   20 1
    36   19   42 1
    37   19   43 1
    38   20   21 1
    39   20   44 1
    40   20   45 1
    41   21   22 1
    42   21   46 1
    43   21   47 1
    44   22   23 2
    45   22   24 am
    46   24   28 1
    47   24   25 1
    48   25   26 1
    49   25   48 1
    50   25   49 1
    51   26   27 1
    52   26   50 1
    53   26   51 1
    54   27   28 1
    55   27   52 1
    56   27   53 1
    57   28   54 1
    58   28   55 1
    59   29   56 1
    60   29   57 1
    61   29   58 1
@<TRIPOS>MOLECULE
ZINC43199480
   50    54     0     0     0
SMALL
USER_CHARGES

@<TRIPOS>ATOM
      1 C1         -2.6182  -10.5731   -0.7014 C.3       1 <0>        -0.1264
      2 C2         -2.0235   -9.2103   -0.4558 C.ar      1 <0>        -0.0251
      3 C3         -1.6125   -8.8544    0.8151 C.ar      1 <0>        -0.1431
      4 C4         -1.0669   -7.6044    1.0404 C.ar      1 <0>        -0.0146
      5 C5         -0.9319   -6.7105   -0.0054 C.ar      1 <0>        -0.6819
      6 C6         -1.3421   -7.0668   -1.2765 C.ar      1 <0>        -0.0092
      7 C7         -1.8837   -8.3184   -1.5026 C.ar      1 <0>        -0.1423
      8 S1         -0.2376   -5.1168    0.2819 S.o2      1 <0>         2.7107
      9 O1         -0.6227   -4.3019   -0.8167 O.2       1 <0>        -0.9370
     10 O2         -0.5444   -4.7766    1.6271 O.2       1 <0>        -0.9248
     11 N1          1.4085   -5.2774    0.1980 N.pl3     1 <0>        -0.8670
     12 C8          2.3398   -5.4348    1.3449 C.3       1 <0>         0.1728
     13 H1          2.4410   -6.4826    1.6275 H         1 <0>         0.1087
     14 C9          3.6435   -4.8971    0.7398 C.3       1 <0>         0.0576
     15 H2          3.8089   -3.8430    0.9623 H         1 <0>         0.1275
     16 C10         3.4063   -5.1744   -0.7545 C.2       1 <0>         0.0651
     17 N2          2.1872   -5.2968   -0.9719 N.2       1 <0>        -0.1953
     18 C11         4.6615   -5.4204   -1.5850 C.3       1 <0>        -0.0082
     19 C12         5.0736   -6.8620   -1.1661 C.3       1 <0>        -0.1412
     20 C13         4.6715   -7.0359    0.3064 C.3       1 <0>         0.0188
     21 N3          4.8221   -5.7362    1.0395 N.3       1 <0>        -0.4776
     22 C14         6.0246   -5.0618    0.4956 C.3       1 <0>         0.0320
     23 C15         5.7345   -4.5167   -0.9185 C.3       1 <0>        -0.1513
     24 C16         1.9004   -4.5992    2.5195 C.ar      1 <0>        -0.1007
     25 C17         1.5603   -3.2721    2.3344 C.ar      1 <0>        -0.0694
     26 C18         1.1568   -2.5050    3.4107 C.ar      1 <0>        -0.1422
     27 C19         1.0932   -3.0661    4.6749 C.ar      1 <0>         0.1107
     28 C20         1.4341   -4.3954    4.8592 C.ar      1 <0>        -0.1475
     29 C21         1.8323   -5.1619    3.7804 C.ar      1 <0>        -0.0593
     30 F1          0.6993   -2.3170    5.7280 F         1 <0>        -0.1382
     31 H3         -1.8243  -11.2758   -0.9543 H         1 <0>         0.0806
     32 H4         -3.1314  -10.9130    0.1982 H         1 <0>         0.0742
     33 H5         -3.3292  -10.5160   -1.5257 H         1 <0>         0.0743
     34 H6         -1.7180   -9.5528    1.6321 H         1 <0>         0.1342
     35 H7         -0.7465   -7.3260    2.0335 H         1 <0>         0.1381
     36 H8         -1.2369   -6.3683   -2.0935 H         1 <0>         0.1422
     37 H9         -2.2007   -8.5981   -2.4964 H         1 <0>         0.1349
     38 H10         4.5373   -5.2644   -2.6566 H         1 <0>         0.1230
     39 H11         4.5499   -7.5923   -1.7831 H         1 <0>         0.0792
     40 H12         6.1510   -6.9869   -1.2745 H         1 <0>         0.0871
     41 H13         3.6339   -7.3651    0.3623 H         1 <0>         0.0726
     42 H14         5.3136   -7.7839    0.7715 H         1 <0>         0.0928
     43 H15         6.3003   -4.2337    1.1485 H         1 <0>         0.0859
     44 H16         6.8489   -5.7736    0.4516 H         1 <0>         0.0875
     45 H17         6.6473   -4.5282   -1.5142 H         1 <0>         0.0883
     46 H18         5.3589   -3.4965   -0.8389 H         1 <0>         0.0730
     47 H19         1.6103   -2.8346    1.3482 H         1 <0>         0.1205
     48 H20         0.8915   -1.4682    3.2659 H         1 <0>         0.1370
     49 H21         1.3851   -4.8340    5.8449 H         1 <0>         0.1386
     50 H22         2.0939   -6.2000    3.9231 H         1 <0>         0.1345
@<TRIPOS>BOND
     1    1    2 1
     2    1   31 1
     3    1   32 1
     4    1   33 1
     5    2    7 ar
     6    2    3 ar
     7    3    4 ar
     8    3   34 1
     9    4    5 ar
    10    4   35 1
    11    5    6 ar
    12    5    8 1
    13    6    7 ar
    14    6   36 1
    15    7   37 1
    16    8    9 2
    17    8   10 2
    18    8   11 1
    19   11   17 1
    20   11   12 1
    21   12   13 1
    22   12   14 1
    23   12   24 1
    24   14   15 1
    25   14   21 1
    26   14   16 1
    27   16   17 2
    28   16   18 1
    29   18   23 1
    30   18   19 1
    31   18   38 1
    32   19   20 1
    33   19   39 1
    34   19   40 1
    35   20   21 1
    36   20   41 1
    37   20   42 1
    38   21   22 1
    39   22   23 1
    40   22   43 1
    41   22   44 1
    42   23   45 1
    43   23   46 1
    44   24   29 ar
    45   24   25 ar
    46   25   26 ar
    47   25   47 1
    48   26   27 ar
    49   26   48 1
    50   27   28 ar
    51   27   30 1
    52   28   29 ar
    53   28   49 1
    54   29   50 1
@<TRIPOS>MOLECULE
ZINC39944406
   63    66     0     0     0
SMALL
USER_CHARGES

@<TRIPOS>ATOM
      1 C1          0.0480    1.5501    0.0089 C.3       1 <0>        -0.1314
      2 C2          0.0502    0.0135    0.0004 C.3       1 <0>        -0.0684
      3 C3         -1.3856   -0.5786   -0.0266 C.3       1 <0>        -0.1243
      4 C4         -1.0638   -2.0129   -0.5164 C.3       1 <0>         0.1416
      5 H1         -1.9540   -2.5116   -0.9210 H         1 <0>         0.0954
      6 C5         -0.4668   -2.7716    0.6664 C.3       1 <0>        -0.1172
      7 C6          0.7474   -2.0970    1.2792 C.3       1 <0>        -0.0517
      8 C7          0.7657   -0.5815    1.2119 C.3       1 <0>        -0.0963
      9 C8          0.7786   -2.4887    2.7781 C.3       1 <0>        -0.1477
     10 C9          2.0292   -2.6686    0.6563 C.3       1 <0>        -0.1422
     11 N1         -0.0267   -1.8359   -1.5521 N.am      1 <0>        -0.6119
     12 C10         0.6681   -0.5656   -1.2920 C.3       1 <0>         0.1074
     13 C11         0.2328   -2.6839   -2.5677 C.2       1 <0>         0.5321
     14 O1         -0.4157   -3.7015   -2.6887 O.2       1 <0>        -0.5189
     15 C12         1.3288   -2.3672   -3.5524 C.3       1 <0>         0.0413
     16 N2          1.4112   -3.4382   -4.5544 N.3       1 <0>        -0.5185
     17 C13         0.1951   -3.4842   -5.3770 C.3       1 <0>         0.0372
     18 C14         0.2413   -4.7195   -6.2826 C.3       1 <0>         0.1319
     19 N3          1.5029   -4.6979   -7.0384 N.pl3     1 <0>        -0.6334
     20 C15         2.7577   -4.5162   -6.2929 C.3       1 <0>         0.1289
     21 C16         2.6123   -3.2889   -5.3869 C.3       1 <0>         0.0406
     22 C17         1.5092   -4.8466   -8.4298 C.ar      1 <0>         0.1895
     23 C18         2.6962   -4.7111   -9.1376 C.ar      1 <0>        -0.1620
     24 C19         2.7016   -4.8585  -10.5107 C.ar      1 <0>        -0.1001
     25 C20         1.5219   -5.1417  -11.1829 C.ar      1 <0>         0.0663
     26 C21         0.3357   -5.2767  -10.4768 C.ar      1 <0>        -0.1557
     27 C22         0.3295   -5.1353   -9.1030 C.ar      1 <0>        -0.1616
     28 O2          1.5281   -5.2867  -12.5352 O.3       1 <0>        -0.3223
     29 C23         0.2775   -5.5777  -13.1622 C.3       1 <0>         0.0294
     30 H2          1.0751    1.9149    0.0025 H         1 <0>         0.0607
     31 H3         -0.4736    1.9176   -0.8748 H         1 <0>         0.0610
     32 H4         -0.4590    1.9077    0.9050 H         1 <0>         0.0640
     33 H5         -1.8309   -0.5867    0.9677 H         1 <0>         0.0876
     34 H6         -2.0194   -0.0485   -0.7374 H         1 <0>         0.0750
     35 H7         -1.2385   -2.8869    1.4423 H         1 <0>         0.0698
     36 H8         -0.1908   -3.7855    0.3439 H         1 <0>         0.0669
     37 H9          1.8117   -0.2367    1.2122 H         1 <0>         0.0638
     38 H10         0.3062   -0.1793    2.1287 H         1 <0>         0.0652
     39 H11         0.8544   -3.5722    2.8690 H         1 <0>         0.0545
     40 H12         1.6395   -2.0228    3.2575 H         1 <0>         0.0544
     41 H13        -0.1361   -2.1465    3.2621 H         1 <0>         0.0543
     42 H14         2.0216   -2.4897   -0.4189 H         1 <0>         0.0542
     43 H15         2.8974   -2.1810    1.0996 H         1 <0>         0.0526
     44 H16         2.0784   -3.7409    0.8458 H         1 <0>         0.0531
     45 H17         0.4888    0.1225   -2.1239 H         1 <0>         0.0630
     46 H18         1.7357   -0.7206   -1.1770 H         1 <0>         0.0738
     47 H19         1.1096   -1.4216   -4.0483 H         1 <0>         0.0618
     48 H20         2.2796   -2.2890   -3.0251 H         1 <0>         0.1029
     49 H21        -0.6800   -3.5403   -4.7296 H         1 <0>         0.1021
     50 H22         0.1369   -2.5853   -5.9908 H         1 <0>         0.0322
     51 H23         0.1950   -5.6221   -5.6732 H         1 <0>         0.0712
     52 H24        -0.6005   -4.6980   -6.9746 H         1 <0>         0.0833
     53 H25         2.9532   -5.3993   -5.6845 H         1 <0>         0.0703
     54 H26         3.5795   -4.3602   -6.9917 H         1 <0>         0.0871
     55 H27         2.5205   -2.3927   -6.0006 H         1 <0>         0.0400
     56 H28         3.4903   -3.2034   -4.7467 H         1 <0>         0.0860
     57 H29         3.6148   -4.4902   -8.6144 H         1 <0>         0.1290
     58 H30         3.6247   -4.7528  -11.0614 H         1 <0>         0.1294
     59 H31        -0.5825   -5.4969  -11.0010 H         1 <0>         0.1262
     60 H32        -0.5934   -5.2452   -8.5528 H         1 <0>         0.1247
     61 H33         0.4230   -5.6680  -14.2387 H         1 <0>         0.0974
     62 H34        -0.1168   -6.5148  -12.7690 H         1 <0>         0.0525
     63 H35        -0.4279   -4.7723  -12.9572 H         1 <0>         0.0520
@<TRIPOS>BOND
     1    1    2 1
     2    1   30 1
     3    1   31 1
     4    1   32 1
     5    2    8 1
     6    2   12 1
     7    2    3 1
     8    3    4 1
     9    3   33 1
    10    3   34 1
    11    4    5 1
    12    4    6 1
    13    4   11 1
    14    6    7 1
    15    6   35 1
    16    6   36 1
    17    7    8 1
    18    7    9 1
    19    7   10 1
    20    8   37 1
    21    8   38 1
    22    9   39 1
    23    9   40 1
    24    9   41 1
    25   10   42 1
    26   10   43 1
    27   10   44 1
    28   11   12 1
    29   11   13 am
    30   12   45 1
    31   12   46 1
    32   13   14 2
    33   13   15 1
    34   15   16 1
    35   15   47 1
    36   15   48 1
    37   16   21 1
    38   16   17 1
    39   17   18 1
    40   17   49 1
    41   17   50 1
    42   18   19 1
    43   18   51 1
    44   18   52 1
    45   19   20 1
    46   19   22 1
    47   20   21 1
    48   20   53 1
    49   20   54 1
    50   21   55 1
    51   21   56 1
    52   22   27 ar
    53   22   23 ar
    54   23   24 ar
    55   23   57 1
    56   24   25 ar
    57   24   58 1
    58   25   26 ar
    59   25   28 1
    60   26   27 ar
    61   26   59 1
    62   27   60 1
    63   28   29 1
    64   29   61 1
    65   29   62 1
    66   29   63 1
@<TRIPOS>MOLECULE
ZINC36638570
   43    45     0     0     0
SMALL
USER_CHARGES

@<TRIPOS>ATOM
      1 C1         -2.6764   -0.0398   -1.1567 C.3       1 <0>        -0.1528
      2 C2         -1.2930   -0.5025   -0.6953 C.3       1 <0>        -0.1111
      3 C3         -0.6956   -1.4458   -1.7413 C.3       1 <0>        -0.1389
      4 H1         -1.3883   -2.2664   -1.9284 H         1 <0>         0.1025
      5 C4         -0.4525   -0.6771   -3.0417 C.3       1 <0>        -0.1392
      6 C5          0.6111   -1.9976   -1.2322 C.2       1 <0>         0.4994
      7 O1          0.9702   -1.7587   -0.0957 O.2       1 <0>        -0.4642
      8 N1          1.3718   -2.7464   -2.0268 N.2       1 <0>        -0.5449
      9 C6          1.1080   -4.0399   -2.1724 C.2       1 <0>         0.4522
     10 N2          0.2359   -4.8078   -1.4473 N.pl3     1 <0>        -0.5781
     11 C7          0.3633   -6.2420   -1.4975 C.3       1 <0>         0.1297
     12 H2         -0.5641   -6.5878   -1.9541 H         1 <0>         0.1148
     13 C8          0.3921   -6.9091   -0.1231 C.3       1 <0>        -0.6013
     14 S1          2.0891   -7.6033   -0.0181 S.o2      1 <0>         2.3754
     15 O2          2.0046   -9.0212    0.0229 O.2       1 <0>        -0.9184
     16 O3          2.8047   -6.9174    1.0001 O.2       1 <0>        -0.9121
     17 C9          2.7464   -7.0938   -1.6548 C.3       1 <0>        -0.5827
     18 C10         1.4732   -6.7444   -2.4355 C.3       1 <0>        -0.0616
     19 H3          1.1464   -7.5594   -3.0814 H         1 <0>         0.1788
     20 S2          1.8039   -5.1752   -3.3647 S.3       1 <0>        -0.0129
     21 C11        -0.7623   -4.2090   -0.6699 C.ar      1 <0>         0.1028
     22 C12        -0.4866   -3.8133    0.6332 C.ar      1 <0>        -0.0116
     23 C13        -1.4749   -3.2224    1.3979 C.ar      1 <0>        -0.0970
     24 C14        -2.7366   -3.0249    0.8676 C.ar      1 <0>        -0.0684
     25 C15        -3.0145   -3.4174   -0.4288 C.ar      1 <0>        -0.1070
     26 C16        -2.0296   -4.0038   -1.2014 C.ar      1 <0>        -0.0123
     27 Cl1        -2.3775   -4.4892   -2.8314 Cl        1 <0>        -0.0326
     28 Cl2         1.0968   -4.0613    1.3002 Cl        1 <0>        -0.0080
     29 H4         -2.5858    0.4836   -2.1084 H         1 <0>         0.0587
     30 H5         -3.3271   -0.9058   -1.2788 H         1 <0>         0.0526
     31 H6         -3.1020    0.6322   -0.4115 H         1 <0>         0.0593
     32 H7         -0.6423    0.3634   -0.5732 H         1 <0>         0.0681
     33 H8         -1.3836   -1.0260    0.2565 H         1 <0>         0.0705
     34 H9         -1.3976   -0.2780   -3.4099 H         1 <0>         0.0683
     35 H10         0.2402    0.1434   -2.8547 H         1 <0>         0.0607
     36 H11        -0.0269   -1.3492   -3.7869 H         1 <0>         0.0621
     37 H12         0.2292   -6.1731    0.6641 H         1 <0>         0.1522
     38 H13        -0.3518   -7.7038   -0.0667 H         1 <0>         0.1655
     39 H14         3.3897   -6.2194   -1.5572 H         1 <0>         0.1587
     40 H15         3.2810   -7.9167   -2.1292 H         1 <0>         0.1671
     41 H16        -1.2615   -2.9149    2.4110 H         1 <0>         0.1510
     42 H17        -3.5069   -2.5633    1.4676 H         1 <0>         0.1528
     43 H18        -4.0010   -3.2616   -0.8397 H         1 <0>         0.1518
@<TRIPOS>BOND
     1    1    2 1
     2    1   29 1
     3    1   30 1
     4    1   31 1
     5    2    3 1
     6    2   32 1
     7    2   33 1
     8    3    4 1
     9    3    5 1
    10    3    6 1
    11    5   34 1
    12    5   35 1
    13    5   36 1
    14    6    7 2
    15    6    8 1
    16    8    9 2
    17    9   20 1
    18    9   10 1
    19   10   11 1
    20   10   21 1
    21   11   12 1
    22   11   18 1
    23   11   13 1
    24   13   14 1
    25   13   37 1
    26   13   38 1
    27   14   15 2
    28   14   16 2
    29   14   17 1
    30   17   18 1
    31   17   39 1
    32   17   40 1
    33   18   19 1
    34   18   20 1
    35   21   26 ar
    36   21   22 ar
    37   22   23 ar
    38   22   28 1
    39   23   24 ar
    40   23   41 1
    41   24   25 ar
    42   24   42 1
    43   25   26 ar
    44   25   43 1
    45   26   27 1
@<TRIPOS>MOLECULE
ZINC01180488
   38    39     0     0     0
SMALL
USER_CHARGES
N-[(4-bromo-2,6-dimethyl-phenyl)thiocarbamoyl]-4-nitro-benzamide
@<TRIPOS>ATOM
      1 C1         -0.6534    3.7026    0.7945 C.3       1 <0>        -0.1212
      2 C2         -1.7285    2.7016    0.4581 C.ar      1 <0>        -0.0274
      3 C3         -3.0536    3.0902    0.4401 C.ar      1 <0>        -0.0876
      4 C4         -4.0417    2.1701    0.1373 C.ar      1 <0>        -0.0717
      5 C5         -3.7049    0.8603   -0.1546 C.ar      1 <0>        -0.0907
      6 C6         -2.3809    0.4676   -0.1441 C.ar      1 <0>        -0.0689
      7 C7         -1.3871    1.3888    0.1599 C.ar      1 <0>         0.1352
      8 N1         -0.0450    0.9938    0.1712 N.pl3     1 <0>        -0.6178
      9 C8          0.8602    1.6610   -0.5717 C.2       1 <0>         0.4874
     10 S1          0.3534    2.9327   -1.5999 S.2       1 <0>        -0.4450
     11 N2          2.1642    1.3271   -0.5053 N.am      1 <0>        -0.6392
     12 C9          3.0694    1.9944   -1.2483 C.2       1 <0>         0.5322
     13 O1          2.7097    2.8970   -1.9781 O.2       1 <0>        -0.3866
     14 C10         4.4992    1.6283   -1.1754 C.ar      1 <0>        -0.0844
     15 C11         4.9166    0.5956   -0.3337 C.ar      1 <0>        -0.0911
     16 C12         6.2521    0.2552   -0.2749 C.ar      1 <0>        -0.0575
     17 C13         7.1787    0.9422   -1.0390 C.ar      1 <0>        -0.0187
     18 C14         6.7726    1.9705   -1.8709 C.ar      1 <0>        -0.0550
     19 C15         5.4394    2.3174   -1.9437 C.ar      1 <0>        -0.0524
     20 N3          8.6108    0.5752   -0.9664 N.pl3     1 <0>         0.0204
     21 O2          9.4288    1.1779   -1.6381 O.2       1 <0>        -0.1453
     22 O3          8.9713   -0.3295   -0.2350 O.3       1 <0>        -0.1485
     23 C16        -2.0149   -0.9592   -0.4626 C.3       1 <0>        -0.1176
     24 Br1        -5.8557    2.7040    0.1219 Br        1 <0>        -0.0411
     25 H1         -0.4133    4.2895   -0.0920 H         1 <0>         0.1139
     26 H2         -1.0082    4.3653    1.5839 H         1 <0>         0.0672
     27 H3          0.2387    3.1770    1.1350 H         1 <0>         0.0508
     28 H4         -3.3193    4.1120    0.6676 H         1 <0>         0.1405
     29 H5         -4.4782    0.1442   -0.3905 H         1 <0>         0.1399
     30 H6          0.2334    0.2372    0.7107 H         1 <0>         0.4069
     31 H7          2.4513    0.6066    0.0772 H         1 <0>         0.4092
     32 H8          4.1949    0.0615    0.2665 H         1 <0>         0.1467
     33 H9          6.5757   -0.5467    0.3722 H         1 <0>         0.1636
     34 H10         7.5010    2.5030   -2.4644 H         1 <0>         0.1666
     35 H11         5.1237    3.1200   -2.5937 H         1 <0>         0.1668
     36 H12        -2.0061   -1.5458    0.4560 H         1 <0>         0.0773
     37 H13        -2.7474   -1.3767   -1.1534 H         1 <0>         0.0790
     38 H14        -1.0263   -0.9870   -0.9209 H         1 <0>         0.0641
@<TRIPOS>BOND
     1    1    2 1
     2    1   25 1
     3    1   26 1
     4    1   27 1
     5    2    7 ar
     6    2    3 ar
     7    3    4 ar
     8    3   28 1
     9    4    5 ar
    10    4   24 1
    11    5    6 ar
    12    5   29 1
    13    6    7 ar
    14    6   23 1
    15    7    8 1
    16    8    9 1
    17    8   30 1
    18    9   10 2
    19    9   11 1
    20   11   12 am
    21   11   31 1
    22   12   13 2
    23   12   14 1
    24   14   19 ar
    25   14   15 ar
    26   15   16 ar
    27   15   32 1
    28   16   17 ar
    29   16   33 1
    30   17   18 ar
    31   17   20 1
    32   18   19 ar
    33   18   34 1
    34   19   35 1
    35   20   21 2
    36   20   22 1
    37   23   36 1
    38   23   37 1
    39   23   38 1
@<TRIPOS>MOLECULE
ZINC12035126
   61    65     0     0     0
SMALL
USER_CHARGES
1-cyclohexyl-N'-methyl-4-oxo-N-[[(1S,4S,5R)-spiro[bicyclo[2.2.1]hept-2-ene-7,1'-cyclopropane]-5-yl]methyl]pyridine-3,5-dicarboxamide
@<TRIPOS>ATOM
      1 C1         -3.9952   10.5003   -9.1752 C.3       1 <0>         0.0891
      2 N1         -3.5264    9.2349   -8.6050 N.am      1 <0>        -0.7409
      3 C2         -3.1333    9.1807   -7.3170 C.2       1 <0>         0.5692
      4 O1         -3.1677   10.1824   -6.6281 O.2       1 <0>        -0.5003
      5 C3         -2.6619    7.9084   -6.7437 C.2       1 <0>        -0.2765
      6 C4         -2.6158    6.7632   -7.5084 C.2       1 <0>         0.1697
      7 N2         -2.1882    5.5969   -6.9977 N.pl3     1 <0>        -0.4580
      8 C5         -1.7781    5.4536   -5.7267 C.2       1 <0>         0.1685
      9 C6         -1.7706    6.5166   -4.8501 C.2       1 <0>        -0.2756
     10 C7         -2.2327    7.8271   -5.3375 C.2       1 <0>         0.4225
     11 O2         -2.2548    8.8045   -4.6087 O.2       1 <0>        -0.4261
     12 C8         -1.3177    6.3452   -3.4591 C.2       1 <0>         0.5712
     13 O3         -1.3175    7.2940   -2.6983 O.2       1 <0>        -0.5011
     14 N3         -0.9036    5.1368   -3.0294 N.am      1 <0>        -0.7342
     15 C9         -0.4531    4.9662   -1.6458 C.3       1 <0>         0.1284
     16 C10        -0.0405    3.5104   -1.4196 C.3       1 <0>        -0.0964
     17 H1          0.6721    3.1924   -2.1806 H         1 <0>         0.0819
     18 C11        -1.2851    2.5855   -1.4127 C.3       1 <0>        -0.1139
     19 C12        -1.2727    1.9600    0.0180 C.3       1 <0>        -0.0417
     20 H2         -2.1985    1.4912    0.3514 H         1 <0>         0.1014
     21 C13        -0.0126    1.0758    0.0080 C.2       1 <0>        -0.1612
     22 C14         1.0478    1.8638    0.0021 C.2       1 <0>        -0.1634
     23 C15         0.5650    3.3255    0.0141 C.3       1 <0>        -0.0318
     24 H3          1.2829    4.0767    0.3431 H         1 <0>         0.1052
     25 C16        -0.7321    3.1579    0.8407 C.3       1 <0>        -0.1277
     26 C17        -1.5617    4.2783    1.3861 C.3       1 <0>        -0.1643
     27 C18        -0.8335    3.3054    2.3276 C.3       1 <0>        -0.1612
     28 C19        -2.1675    4.4212   -7.8715 C.3       1 <0>         0.1123
     29 C20        -1.2480    4.6887   -9.0648 C.3       1 <0>        -0.1347
     30 C21        -1.2265    3.4608   -9.9774 C.3       1 <0>        -0.1166
     31 C22        -2.6429    3.1736  -10.4794 C.3       1 <0>        -0.1267
     32 C23        -3.5625    2.9061   -9.2861 C.3       1 <0>        -0.1167
     33 C24        -3.5840    4.1339   -8.3735 C.3       1 <0>        -0.1347
     34 H4         -3.2010   11.2442   -9.1108 H         1 <0>         0.0621
     35 H5         -4.2677   10.3494  -10.2198 H         1 <0>         0.0761
     36 H6         -4.8655   10.8490   -8.6194 H         1 <0>         0.0621
     37 H7         -3.4989    8.4360   -9.1545 H         1 <0>         0.3924
     38 H8         -2.9306    6.8041   -8.5407 H         1 <0>         0.1644
     39 H9         -1.4467    4.4844   -5.3846 H         1 <0>         0.1657
     40 H10        -0.9037    4.3800   -3.6361 H         1 <0>         0.3907
     41 H11        -1.2645    5.2238   -0.9651 H         1 <0>         0.0764
     42 H12         0.3995    5.6188   -1.4582 H         1 <0>         0.0687
     43 H13        -2.1945    3.1654   -1.5705 H         1 <0>         0.0731
     44 H14        -1.1890    1.8078   -2.1703 H         1 <0>         0.0684
     45 H15         0.0021   -0.0041    0.0020 H         1 <0>         0.1272
     46 H16         2.0775    1.5381   -0.0098 H         1 <0>         0.1282
     47 H17        -1.1639    5.2894    1.2993 H         1 <0>         0.0993
     48 H18        -2.6451    4.1888    1.3075 H         1 <0>         0.0966
     49 H19        -1.4388    2.5768    2.8670 H         1 <0>         0.0954
     50 H20         0.0433    3.6753    2.8591 H         1 <0>         0.0964
     51 H21        -1.7982    3.5605   -7.3139 H         1 <0>         0.1130
     52 H22        -1.6174    5.5494   -9.6223 H         1 <0>         0.0742
     53 H23        -0.2389    4.8933   -8.7071 H         1 <0>         0.0777
     54 H24        -0.8571    2.6002   -9.4198 H         1 <0>         0.0691
     55 H25        -0.5714    3.6514  -10.8274 H         1 <0>         0.0746
     56 H26        -2.6276    2.2989  -11.1295 H         1 <0>         0.0706
     57 H27        -3.0123    4.0343  -11.0369 H         1 <0>         0.0662
     58 H28        -3.1931    2.0454   -8.7286 H         1 <0>         0.0691
     59 H29        -4.5716    2.7015   -9.6438 H         1 <0>         0.0746
     60 H30        -4.2391    3.9434   -7.5235 H         1 <0>         0.0777
     61 H31        -3.9534    4.9946   -8.9311 H         1 <0>         0.0741
@<TRIPOS>BOND
     1    1    2 1
     2    1   34 1
     3    1   35 1
     4    1   36 1
     5    2    3 am
     6    2   37 1
     7    3    4 2
     8    3    5 1
     9    5   10 1
    10    5    6 2
    11    6    7 1
    12    6   38 1
    13    7    8 1
    14    7   28 1
    15    8    9 2
    16    8   39 1
    17    9   10 1
    18    9   12 1
    19   10   11 2
    20   12   13 2
    21   12   14 am
    22   14   15 1
    23   14   40 1
    24   15   16 1
    25   15   41 1
    26   15   42 1
    27   16   17 1
    28   16   23 1
    29   16   18 1
    30   18   19 1
    31   18   43 1
    32   18   44 1
    33   19   20 1
    34   19   25 1
    35   19   21 1
    36   21   22 2
    37   21   45 1
    38   22   23 1
    39   22   46 1
    40   23   24 1
    41   23   25 1
    42   25   27 1
    43   25   26 1
    44   26   27 1
    45   26   47 1
    46   26   48 1
    47   27   49 1
    48   27   50 1
    49   28   33 1
    50   28   29 1
    51   28   51 1
    52   29   30 1
    53   29   52 1
    54   29   53 1
    55   30   31 1
    56   30   54 1
    57   30   55 1
    58   31   32 1
    59   31   56 1
    60   31   57 1
    61   32   33 1
    62   32   58 1
    63   32   59 1
    64   33   60 1
    65   33   61 1
@<TRIPOS>MOLECULE
ZINC22482690
   55    58     0     0     0
SMALL
USER_CHARGES
N-[(1S)-2-[4-(1H-indol-3-yl)-3,6-dihydro-2H-pyridin-1-yl]-1-methyl-2-oxo-ethyl]-4-methyl-benzenesulfonamide
@<TRIPOS>ATOM
      1 C1          6.9331    2.5670   -1.8250 C.3       1 <0>        -0.1287
      2 C2          7.0677    3.9701   -1.2920 C.ar      1 <0>        -0.0264
      3 C3          7.5859    4.9681   -2.0959 C.ar      1 <0>        -0.1413
      4 C4          7.7094    6.2552   -1.6069 C.ar      1 <0>        -0.0115
      5 C5          7.3138    6.5444   -0.3144 C.ar      1 <0>        -0.6918
      6 C6          6.8000    5.5454    0.4911 C.ar      1 <0>        -0.0225
      7 C7          6.6725    4.2592    0.0007 C.ar      1 <0>        -0.1417
      8 S1          7.4712    8.1850    0.3089 S.o2      1 <0>         2.6935
      9 O1          8.4898    8.8142   -0.4564 O.2       1 <0>        -0.9535
     10 O2          7.5384    8.0771    1.7242 O.2       1 <0>        -0.9519
     11 N1          6.0597    8.9783   -0.0388 N.pl3     1 <0>        -1.1077
     12 C8          4.8046    8.5458    0.5807 C.3       1 <0>         0.1403
     13 H1          4.9090    7.4800    0.8322 H         1 <0>         0.1009
     14 C9          4.5394    9.3828    1.8338 C.3       1 <0>        -0.1796
     15 C10         3.6722    8.7313   -0.3962 C.2       1 <0>         0.5198
     16 O3          3.8919    9.1805   -1.5011 O.2       1 <0>        -0.5289
     17 N2          2.4153    8.3979   -0.0420 N.am      1 <0>        -0.6092
     18 C11         1.2865    8.5674   -0.9732 C.3       1 <0>         0.1102
     19 C12         0.6959    7.1810   -1.2522 C.3       1 <0>        -0.0946
     20 C13         0.5297    6.4185    0.0287 C.2       1 <0>        -0.0248
     21 C14         1.1580    6.7012    1.1461 C.2       1 <0>        -0.1728
     22 C15         2.1158    7.8512    1.2892 C.3       1 <0>         0.1303
     23 C16        -0.3977    5.2702    0.0314 C.2       1 <0>        -0.1574
     24 C17        -1.7545    5.3233    0.0443 C.2       1 <0>         0.0631
     25 N3         -2.2649    4.0580    0.0435 N.pl3     1 <0>        -0.6042
     26 H2         -3.3541    3.9043    0.0531 H         1 <0>         0.4438
     27 C18        -1.2436    3.1325    0.0298 C.ar      1 <0>         0.1058
     28 C19        -0.0317    3.8437    0.0216 C.ar      1 <0>        -0.0936
     29 C20         1.1806    3.1565    0.0068 C.ar      1 <0>        -0.0708
     30 C21         1.1836    1.7792    0.0003 C.ar      1 <0>        -0.1461
     31 C22        -0.0126    1.0758    0.0080 C.ar      1 <0>        -0.0994
     32 C23        -1.2187    1.7416    0.0173 C.ar      1 <0>        -0.1312
     33 H3          7.2962    2.5326   -2.8628 H         1 <0>         0.0716
     34 H4          5.8762    2.2636   -1.7961 H         1 <0>         0.0789
     35 H5          7.5287    1.8806   -1.2052 H         1 <0>         0.0791
     36 H6          7.8947    4.7422   -3.1059 H         1 <0>         0.1332
     37 H7          8.1146    7.0348   -2.2349 H         1 <0>         0.1405
     38 H8          6.4950    5.7704    1.5024 H         1 <0>         0.1393
     39 H9          6.2673    3.4796    0.6287 H         1 <0>         0.1331
     40 H10         6.0448    9.7163   -0.8543 H         1 <0>         0.4532
     41 H11         3.5970    9.0580    2.2990 H         1 <0>         0.0813
     42 H12         4.4646   10.4446    1.5564 H         1 <0>         0.0737
     43 H13         5.3660    9.2474    2.5468 H         1 <0>         0.0883
     44 H14         0.5283    9.2198   -0.5154 H         1 <0>         0.0770
     45 H15         1.6469    9.0234   -1.9071 H         1 <0>         0.0994
     46 H16        -0.2866    7.2913   -1.7345 H         1 <0>         0.0859
     47 H17         1.3704    6.6223   -1.9177 H         1 <0>         0.0805
     48 H18         0.9950    6.0820    2.0406 H         1 <0>         0.1242
     49 H19         3.0464    7.5007    1.7595 H         1 <0>         0.0990
     50 H20         1.6618    8.6347    1.9137 H         1 <0>         0.0887
     51 H21        -2.3410    6.2302    0.0535 H         1 <0>         0.1705
     52 H22         2.1131    3.7012    0.0008 H         1 <0>         0.1182
     53 H23         2.1215    1.2440   -0.0112 H         1 <0>         0.1218
     54 H24         0.0021   -0.0041    0.0020 H         1 <0>         0.1249
     55 H25        -2.1438    1.1843    0.0187 H         1 <0>         0.1192
@<TRIPOS>BOND
     1    1    2 1
     2    1   33 1
     3    1   34 1
     4    1   35 1
     5    2    7 ar
     6    2    3 ar
     7    3    4 ar
     8    3   36 1
     9    4    5 ar
    10    4   37 1
    11    5    6 ar
    12    5    8 1
    13    6    7 ar
    14    6   38 1
    15    7   39 1
    16    8    9 2
    17    8   10 2
    18    8   11 1
    19   11   12 1
    20   11   40 1
    21   12   13 1
    22   12   14 1
    23   12   15 1
    24   14   41 1
    25   14   42 1
    26   14   43 1
    27   15   16 2
    28   15   17 am
    29   17   22 1
    30   17   18 1
    31   18   19 1
    32   18   44 1
    33   18   45 1
    34   19   20 1
    35   19   46 1
    36   19   47 1
    37   20   21 2
    38   20   23 1
    39   21   22 1
    40   21   48 1
    41   22   49 1
    42   22   50 1
    43   23   28 1
    44   23   24 2
    45   24   25 1
    46   24   51 1
    47   25   26 1
    48   25   27 1
    49   27   32 ar
    50   27   28 ar
    51   28   29 ar
    52   29   30 ar
    53   29   52 1
    54   30   31 ar
    55   30   53 1
    56   31   32 ar
    57   31   54 1
    58   32   55 1
@<TRIPOS>MOLECULE
ZINC40167781
   43    46     0     0     0
SMALL
USER_CHARGES

@<TRIPOS>ATOM
      1 C1          0.1609    0.9984   -2.2345 C.ar      1 <0>        -0.0949
      2 C2          1.3419    1.7178   -2.2546 C.ar      1 <0>        -0.0987
      3 C3          2.5252    1.1341   -1.8376 C.ar      1 <0>        -0.0667
      4 C4          2.5293   -0.1853   -1.3941 C.ar      1 <0>        -0.1214
      5 C5          1.3286   -0.9166   -1.3732 C.ar      1 <0>        -0.1173
      6 C6          0.1471   -0.3141   -1.7967 C.ar      1 <0>        -0.0682
      7 C7          1.3243   -2.3180   -0.9043 C.2       1 <0>         0.4371
      8 O1          0.2872   -2.9509   -0.8861 O.2       1 <0>        -0.4244
      9 C8          2.5842   -2.9482   -0.4581 C.ar      1 <0>        -0.1137
     10 C9          2.5904   -4.2667   -0.0158 C.ar      1 <0>        -0.0570
     11 C10         3.7745   -4.8543    0.4021 C.ar      1 <0>        -0.0858
     12 C11         4.9554   -4.1425    0.3841 C.ar      1 <0>        -0.0532
     13 C12         4.9735   -2.8196   -0.0552 C.ar      1 <0>         0.1849
     14 C13         3.7850   -2.2140   -0.4799 C.ar      1 <0>        -0.1287
     15 C14         3.7889   -0.8170   -0.9473 C.2       1 <0>         0.4420
     16 O2          4.8267   -0.1842   -0.9650 O.2       1 <0>        -0.4443
     17 N1          6.1656   -2.1053   -0.0709 N.pl3     1 <0>        -0.6182
     18 C15         7.2809   -2.6666   -0.5784 C.2       1 <0>         0.5589
     19 S1          7.2003   -4.2028   -1.3298 S.2       1 <0>        -0.5896
     20 N2          8.4596   -2.0186   -0.4945 N.pl3     1 <0>        -0.6813
     21 C16         9.6719   -2.6287   -1.0461 C.3       1 <0>         0.1293
     22 H1          9.6087   -3.7085   -0.9112 H         1 <0>         0.1635
     23 C17         9.7326   -2.3236   -2.5596 C.3       1 <0>        -0.5654
     24 S2         10.8979   -0.8924   -2.5921 S.o2      1 <0>         2.3577
     25 O3         11.6913   -0.9581   -3.7691 O.2       1 <0>        -0.9160
     26 O4         10.1877    0.2998   -2.2860 O.2       1 <0>        -0.9179
     27 C18        11.9205   -1.3873   -1.1371 C.3       1 <0>        -0.5790
     28 C19        10.8728   -2.1117   -0.2683 C.3       1 <0>        -0.0234
     29 H2         10.5200   -1.4213    0.4978 H         1 <0>         0.1295
     30 Cl1        11.6735   -3.5059    0.5476 Cl        1 <0>        -0.1232
     31 H3         -0.7574    1.4656   -2.5585 H         1 <0>         0.1402
     32 H4          1.3408    2.7416   -2.5984 H         1 <0>         0.1396
     33 H5          3.4441    1.7012   -1.8565 H         1 <0>         0.1435
     34 H6         -0.7787   -0.8700   -1.7832 H         1 <0>         0.1457
     35 H7          1.6713   -4.8336    0.0026 H         1 <0>         0.1488
     36 H8          3.7719   -5.8784    0.7450 H         1 <0>         0.1474
     37 H9          5.8709   -4.6123    0.7123 H         1 <0>         0.1528
     38 H10         6.1950   -1.2028    0.2833 H         1 <0>         0.4193
     39 H11         8.5053   -1.1482   -0.0687 H         1 <0>         0.4075
     40 H12        10.1368   -3.1706   -3.1141 H         1 <0>         0.1657
     41 H13         8.7521   -2.0393   -2.9416 H         1 <0>         0.1544
     42 H14        12.7217   -2.0643   -1.4334 H         1 <0>         0.1617
     43 H15        12.3189   -0.5129   -0.6226 H         1 <0>         0.1588
@<TRIPOS>BOND
     1    1    6 ar
     2    1    2 ar
     3    1   31 1
     4    2    3 ar
     5    2   32 1
     6    3    4 ar
     7    3   33 1
     8    4   15 1
     9    4    5 ar
    10    5    6 ar
    11    5    7 1
    12    6   34 1
    13    7    8 2
    14    7    9 1
    15    9   14 ar
    16    9   10 ar
    17   10   11 ar
    18   10   35 1
    19   11   12 ar
    20   11   36 1
    21   12   13 ar
    22   12   37 1
    23   13   14 ar
    24   13   17 1
    25   14   15 1
    26   15   16 2
    27   17   18 1
    28   17   38 1
    29   18   19 2
    30   18   20 1
    31   20   21 1
    32   20   39 1
    33   21   22 1
    34   21   28 1
    35   21   23 1
    36   23   24 1
    37   23   40 1
    38   23   41 1
    39   24   25 2
    40   24   26 2
    41   24   27 1
    42   27   28 1
    43   27   42 1
    44   27   43 1
    45   28   29 1
    46   28   30 1
@<TRIPOS>MOLECULE
ZINC17082848
   54    57     0     0     0
SMALL
USER_CHARGES

@<TRIPOS>ATOM
      1 C1         -0.0481    1.5023    0.0143 C.3       1 <0>        -0.1143
      2 C2         -0.0198   -0.0044    0.0049 C.ar      1 <0>        -0.0990
      3 C3         -0.6060   -0.7119    1.0383 C.ar      1 <0>        -0.1033
      4 C4         -0.5818   -2.0928    1.0327 C.ar      1 <0>        -0.1148
      5 C5          0.0319   -2.7708   -0.0125 C.ar      1 <0>         0.1364
      6 C6          0.6193   -2.0573   -1.0490 C.ar      1 <0>        -0.1387
      7 C7          0.5875   -0.6766   -1.0399 C.ar      1 <0>        -0.1023
      8 N1          0.0586   -4.1697   -0.0209 N.am      1 <0>        -0.6724
      9 C8          0.1754   -4.8485    1.1376 C.2       1 <0>         0.5169
     10 O1          0.1732   -4.2513    2.1932 O.2       1 <0>        -0.5046
     11 C9          0.3087   -6.3495    1.1213 C.3       1 <0>        -0.0498
     12 H1          1.2012   -6.6284    0.5611 H         1 <0>         0.1338
     13 C10        -0.9231   -6.9627    0.4543 C.3       1 <0>        -0.1371
     14 C11        -2.1020   -6.8292    1.3850 C.2       1 <0>         0.5199
     15 O2         -3.2061   -6.6056    0.9366 O.2       1 <0>        -0.4985
     16 N2         -1.9294   -6.9584    2.7099 N.am      1 <0>        -0.6513
     17 C12        -0.6842   -7.1214    3.2601 C.2       1 <0>         0.2408
     18 C13         0.4248   -6.8595    2.5387 C.2       1 <0>        -0.2674
     19 C14         1.7090   -7.0490    3.0782 C.2       1 <0>         0.4120
     20 O3          2.6859   -6.8465    2.3849 O.2       1 <0>        -0.4696
     21 C15         1.8906   -7.4990    4.5033 C.3       1 <0>        -0.1585
     22 C16         0.6906   -7.0184    5.3272 C.3       1 <0>        -0.0305
     23 H2          0.6561   -5.9290    5.3231 H         1 <0>         0.0957
     24 C17        -0.5841   -7.5744    4.6956 C.3       1 <0>        -0.0941
     25 C18         0.8174   -7.5156    6.7442 C.ar      1 <0>        -0.1205
     26 C19         0.8770   -8.8738    6.9963 C.ar      1 <0>        -0.0733
     27 C20         0.9929   -9.3321    8.2943 C.ar      1 <0>        -0.1490
     28 C21         1.0499   -8.4283    9.3453 C.ar      1 <0>         0.1294
     29 C22         0.9904   -7.0661    9.0897 C.ar      1 <0>        -0.2058
     30 C23         0.8797   -6.6127    7.7894 C.ar      1 <0>        -0.0676
     31 O4          1.1634   -8.8767   10.6232 O.3       1 <0>        -0.3175
     32 C24         1.2165   -7.8894   11.6549 C.3       1 <0>         0.0262
     33 H3         -0.9471    1.8519   -0.4932 H         1 <0>         0.0703
     34 H4         -0.0501    1.8592    1.0442 H         1 <0>         0.0661
     35 H5          0.8325    1.8854   -0.5013 H         1 <0>         0.0663
     36 H6         -1.0831   -0.1841    1.8509 H         1 <0>         0.1246
     37 H7         -1.0392   -2.6448    1.8405 H         1 <0>         0.1358
     38 H8          1.0977   -2.5817   -1.8631 H         1 <0>         0.1262
     39 H9          1.0406   -0.1212   -1.8478 H         1 <0>         0.1267
     40 H10        -0.0070   -4.6510   -0.8605 H         1 <0>         0.4104
     41 H11        -1.1327   -6.4377   -0.4776 H         1 <0>         0.1151
     42 H12        -0.7391   -8.0170    0.2475 H         1 <0>         0.1252
     43 H13        -2.7047   -6.9356    3.2925 H         1 <0>         0.4165
     44 H14         1.9463   -8.5870    4.5389 H         1 <0>         0.1047
     45 H15         2.8073   -7.0702    4.9081 H         1 <0>         0.1022
     46 H16        -1.4499   -7.2135    5.2507 H         1 <0>         0.0976
     47 H17        -0.5605   -8.6636    4.7310 H         1 <0>         0.1076
     48 H18         0.8326   -9.5769    6.1778 H         1 <0>         0.1302
     49 H19         1.0387  -10.3931    8.4908 H         1 <0>         0.1322
     50 H20         1.0345   -6.3605    9.9062 H         1 <0>         0.1294
     51 H21         0.8378   -5.5522    7.5896 H         1 <0>         0.1271
     52 H22         1.3069   -8.3807   12.6237 H         1 <0>         0.1017
     53 H23         2.0784   -7.2418   11.4941 H         1 <0>         0.0568
     54 H24         0.3047   -7.2925   11.6338 H         1 <0>         0.0564
@<TRIPOS>BOND
     1    1    2 1
     2    1   33 1
     3    1   34 1
     4    1   35 1
     5    2    7 ar
     6    2    3 ar
     7    3    4 ar
     8    3   36 1
     9    4    5 ar
    10    4   37 1
    11    5    6 ar
    12    5    8 1
    13    6    7 ar
    14    6   38 1
    15    7   39 1
    16    8    9 am
    17    8   40 1
    18    9   10 2
    19    9   11 1
    20   11   12 1
    21   11   18 1
    22   11   13 1
    23   13   14 1
    24   13   41 1
    25   13   42 1
    26   14   15 2
    27   14   16 am
    28   16   17 1
    29   16   43 1
    30   17   24 1
    31   17   18 2
    32   18   19 1
    33   19   20 2
    34   19   21 1
    35   21   22 1
    36   21   44 1
    37   21   45 1
    38   22   23 1
    39   22   24 1
    40   22   25 1
    41   24   46 1
    42   24   47 1
    43   25   30 ar
    44   25   26 ar
    45   26   27 ar
    46   26   48 1
    47   27   28 ar
    48   27   49 1
    49   28   29 ar
    50   28   31 1
    51   29   30 ar
    52   29   50 1
    53   30   51 1
    54   31   32 1
    55   32   52 1
    56   32   53 1
    57   32   54 1
@<TRIPOS>MOLECULE
ZINC09364264
   47    49     0     0     0
SMALL
USER_CHARGES
1-(4-fluorophenyl)-5-methyl-3-[(3-methyl-1-piperidyl)carbonylmethyl]imidazolidine-2,4-dione
@<TRIPOS>ATOM
      1 C1         -2.5607    3.9367   -1.0586 C.3       1 <0>        -0.1463
      2 C2         -1.3006    3.0725   -1.1375 C.3       1 <0>        -0.1076
      3 H1         -1.2902    2.5298   -2.0827 H         1 <0>         0.0747
      4 C3         -0.0617    3.9665   -1.0481 C.3       1 <0>        -0.1164
      5 C4          1.1992    3.1065   -1.1607 C.3       1 <0>        -0.1375
      6 C5          1.2377    2.1093    0.0016 C.3       1 <0>         0.1021
      7 N1         -0.0162    1.3436    0.0094 N.am      1 <0>        -0.6075
      8 C6         -1.2905    2.0749    0.0193 C.3       1 <0>         0.1165
      9 C7          0.0021   -0.0041    0.0020 C.2       1 <0>         0.5048
     10 O1         -1.0399   -0.6247    0.0086 O.2       1 <0>        -0.5271
     11 C8          1.3172   -0.7397   -0.0145 C.3       1 <0>         0.0998
     12 N2          1.0691   -2.1835   -0.0199 N.am      1 <0>        -0.5601
     13 C9          0.9568   -2.9366    1.0921 C.2       1 <0>         0.5351
     14 O2          1.0388   -2.5613    2.2420 O.2       1 <0>        -0.4515
     15 C10         0.7045   -4.3500    0.6061 C.3       1 <0>         0.0899
     16 H2          1.5038   -5.0140    0.9355 H         1 <0>         0.1380
     17 N3          0.7119   -4.2182   -0.8610 N.am      1 <0>        -0.5584
     18 C11         0.9317   -2.9184   -1.1294 C.2       1 <0>         0.7106
     19 O3          0.9981   -2.4626   -2.2542 O.2       1 <0>        -0.5193
     20 C12         0.5269   -5.2457   -1.7945 C.ar      1 <0>         0.1788
     21 C13         0.3147   -6.5479   -1.3619 C.ar      1 <0>        -0.1294
     22 C14         0.1281   -7.5591   -2.2841 C.ar      1 <0>        -0.1211
     23 C15         0.1627   -7.2766   -3.6392 C.ar      1 <0>         0.0771
     24 C16         0.3790   -5.9794   -4.0727 C.ar      1 <0>        -0.1195
     25 C17         0.5612   -4.9646   -3.1537 C.ar      1 <0>        -0.1217
     26 F1         -0.0153   -8.2679   -4.5397 F         1 <0>        -0.1378
     27 C18        -0.6527   -4.8608    1.0939 C.3       1 <0>        -0.1591
     28 H3         -2.5658    4.6479   -1.8846 H         1 <0>         0.0608
     29 H4         -3.4428    3.2995   -1.1223 H         1 <0>         0.0583
     30 H5         -2.5713    4.4783   -0.1128 H         1 <0>         0.0579
     31 H6         -0.0600    4.4901   -0.0921 H         1 <0>         0.0667
     32 H7         -0.0793    4.6933   -1.8602 H         1 <0>         0.0691
     33 H8          2.0807    3.7463   -1.1204 H         1 <0>         0.0807
     34 H9          1.1866    2.5635   -2.1057 H         1 <0>         0.0699
     35 H10         1.3422    2.6490    0.9428 H         1 <0>         0.0776
     36 H11         2.0801    1.4297   -0.1278 H         1 <0>         0.0839
     37 H12        -2.1158    1.3726   -0.0983 H         1 <0>         0.0928
     38 H13        -1.3964    2.6117    0.9621 H         1 <0>         0.0706
     39 H14         1.8766   -0.4639   -0.9084 H         1 <0>         0.1304
     40 H15         1.8936   -0.4734    0.8715 H         1 <0>         0.1292
     41 H16         0.2921   -6.7693   -0.3051 H         1 <0>         0.1413
     42 H17        -0.0407   -8.5715   -1.9480 H         1 <0>         0.1440
     43 H18         0.4056   -5.7611   -5.1301 H         1 <0>         0.1433
     44 H19         0.7298   -3.9529   -3.4922 H         1 <0>         0.1629
     45 H20        -0.8546   -5.8360    0.6507 H         1 <0>         0.0870
     46 H21        -0.6378   -4.9515    2.1800 H         1 <0>         0.0917
     47 H22        -1.4326   -4.1589    0.7985 H         1 <0>         0.0745
@<TRIPOS>BOND
     1    1    2 1
     2    1   28 1
     3    1   29 1
     4    1   30 1
     5    2    3 1
     6    2    8 1
     7    2    4 1
     8    4    5 1
     9    4   31 1
    10    4   32 1
    11    5    6 1
    12    5   33 1
    13    5   34 1
    14    6    7 1
    15    6   35 1
    16    6   36 1
    17    7    8 1
    18    7    9 am
    19    8   37 1
    20    8   38 1
    21    9   10 2
    22    9   11 1
    23   11   12 1
    24   11   39 1
    25   11   40 1
    26   12   18 am
    27   12   13 am
    28   13   14 2
    29   13   15 1
    30   15   16 1
    31   15   17 1
    32   15   27 1
    33   17   18 am
    34   17   20 1
    35   18   19 2
    36   20   25 ar
    37   20   21 ar
    38   21   22 ar
    39   21   41 1
    40   22   23 ar
    41   22   42 1
    42   23   24 ar
    43   23   26 1
    44   24   25 ar
    45   24   43 1
    46   25   44 1
    47   27   45 1
    48   27   46 1
    49   27   47 1
@<TRIPOS>MOLECULE
ZINC33269877
   41    43     0     0     0
SMALL
USER_CHARGES
[(2S)-2-(3,5-dimethylisoxazol-4-yl)pyrrolidin-1-yl]-[1-methyl-5-(trifluoromethyl)pyrazol-3-yl]methanone
@<TRIPOS>ATOM
      1 C1         -1.2359    2.2958    0.0207 C.3       1 <0>        -0.0784
      2 C2         -0.0171    1.4096    0.0098 C.2       1 <0>         0.0371
      3 C3          0.0021   -0.0041    0.0020 C.2       1 <0>        -0.2092
      4 C4          1.3207   -0.3135   -0.0122 C.2       1 <0>        -0.0156
      5 O1          1.9839    0.8513   -0.0123 O.3       1 <0>         0.0973
      6 N1          1.2266    1.7940   -0.0000 N.2       1 <0>        -0.3655
      7 C5          1.9232   -1.6947   -0.0258 C.3       1 <0>        -0.0757
      8 C6         -1.1726   -0.9481    0.0089 C.3       1 <0>         0.2176
      9 H1         -2.0651   -0.3890   -0.3088 H         1 <0>         0.0936
     10 C7         -1.3322   -1.5771    1.4090 C.3       1 <0>        -0.1254
     11 C8         -1.7405   -3.0393    1.0886 C.3       1 <0>        -0.1335
     12 C9         -0.9168   -3.3185   -0.1933 C.3       1 <0>         0.0980
     13 N2         -0.9366   -2.0469   -0.9390 N.am      1 <0>        -0.5999
     14 C10        -0.7673   -1.9138   -2.2695 C.2       1 <0>         0.6193
     15 O2         -0.8042   -0.8109   -2.7796 O.2       1 <0>        -0.5124
     16 C11        -0.5371   -3.1080   -3.1078 C.2       1 <0>        -0.0143
     17 C12        -0.3490   -3.1288   -4.5101 C.2       1 <0>        -0.1021
     18 C13        -0.1741   -4.4319   -4.8323 C.2       1 <0>        -0.0916
     19 N3         -0.2621   -5.1423   -3.6874 N.pl3     1 <0>        -0.2480
     20 N4         -0.4735   -4.3574   -2.6926 N.2       1 <0>        -0.2189
     21 C14        -0.1347   -6.5987   -3.5931 C.3       1 <0>         0.0655
     22 C15         0.0672   -4.9869   -6.2125 C.3       1 <0>         0.5496
     23 F1         -1.1592   -5.2832   -6.8169 F         1 <0>        -0.1650
     24 F2          0.7501   -4.0398   -6.9831 F         1 <0>        -0.1572
     25 F3          0.8346   -6.1528   -6.1187 F         1 <0>        -0.1730
     26 H2         -2.1423    1.6726    0.0275 H         1 <0>         0.0797
     27 H3         -1.2349    2.9317   -0.8768 H         1 <0>         0.0810
     28 H4         -1.2201    2.9299    0.9194 H         1 <0>         0.0799
     29 H5          3.0203   -1.6160   -0.0357 H         1 <0>         0.0833
     30 H6          1.5861   -2.2330   -0.9239 H         1 <0>         0.0846
     31 H7          1.6030   -2.2433    0.8723 H         1 <0>         0.0910
     32 H8         -0.3769   -1.5134    1.9506 H         1 <0>         0.0808
     33 H9         -2.1079   -1.0340    1.9687 H         1 <0>         0.0892
     34 H10        -1.4656   -3.6899    1.9319 H         1 <0>         0.0899
     35 H11        -2.8273   -3.0893    0.9261 H         1 <0>         0.0805
     36 H12         0.1062   -3.6118    0.0849 H         1 <0>         0.0746
     37 H13        -1.3894   -4.1322   -0.7629 H         1 <0>         0.0971
     38 H14        -0.3439   -2.2830   -5.1816 H         1 <0>         0.1781
     39 H15        -0.2481   -6.9095   -2.5440 H         1 <0>         0.1149
     40 H16         0.8557   -6.9047   -3.9612 H         1 <0>         0.1045
     41 H17        -0.9160   -7.0754   -4.2033 H         1 <0>         0.0987
@<TRIPOS>BOND
     1    1    2 1
     2    1   26 1
     3    1   27 1
     4    1   28 1
     5    2    6 2
     6    2    3 1
     7    3    4 2
     8    3    8 1
     9    4    5 1
    10    4    7 1
    11    5    6 1
    12    7   29 1
    13    7   30 1
    14    7   31 1
    15    8    9 1
    16    8   13 1
    17    8   10 1
    18   10   11 1
    19   10   32 1
    20   10   33 1
    21   11   12 1
    22   11   34 1
    23   11   35 1
    24   12   13 1
    25   12   36 1
    26   12   37 1
    27   13   14 am
    28   14   15 2
    29   14   16 1
    30   16   20 2
    31   16   17 1
    32   17   18 2
    33   17   38 1
    34   18   19 1
    35   18   22 1
    36   19   20 1
    37   19   21 1
    38   21   39 1
    39   21   40 1
    40   21   41 1
    41   22   23 1
    42   22   24 1
    43   22   25 1
@<TRIPOS>MOLECULE
ZINC47369221
   25    26     0     0     0
SMALL
USER_CHARGES

@<TRIPOS>ATOM
      1 C1         -0.0168    1.3884    0.0097 C.2       1 <0>         0.0772
      2 C2          1.1948    2.0808    0.0018 C.2       1 <0>        -0.1617
      3 C3          2.3684    1.4000   -0.0130 C.2       1 <0>         0.2658
      4 N1          2.3946    0.0451   -0.0206 N.am      1 <0>        -0.4720
      5 C4          1.2546   -0.6716   -0.0135 C.2       1 <0>         0.5415
      6 O1          1.2982   -1.8898   -0.0205 O.2       1 <0>        -0.4888
      7 C5          0.0021   -0.0041    0.0020 C.2       1 <0>        -0.1302
      8 C6         -1.2207   -0.7494    0.0102 C.1       1 <0>         0.2668
      9 N2         -2.1906   -1.3406    0.0166 N.1       1 <0>        -0.3807
     10 C7          3.6836   -0.6509   -0.0371 C.3       1 <0>         0.1445
     11 C8          4.1397   -0.8972    1.3779 C.2       1 <0>        -0.1754
     12 C9          4.9137    0.0388    2.0384 C.2       1 <0>        -0.1072
     13 C10         5.3072   -0.2144    3.3115 C.2       1 <0>        -0.1766
     14 S1          4.5771   -1.8156    3.6121 S.3       1 <0>         0.1317
     15 C11         3.7925   -2.0369    2.0238 C.2       1 <0>        -0.1172
     16 Br1         6.3572    0.8517    4.4677 Br        1 <0>         0.0507
     17 N3          1.1996    3.5609    0.0092 N.pl3     1 <0>         0.0527
     18 O2          2.2485    4.1621    0.0024 O.2       1 <0>        -0.1554
     19 O3          0.1546    4.1688    0.0221 O.3       1 <0>        -0.1416
     20 H1         -0.9545    1.9240    0.0260 H         1 <0>         0.1767
     21 H2          3.2990    1.9481   -0.0193 H         1 <0>         0.2017
     22 H3          3.5753   -1.6039   -0.5550 H         1 <0>         0.1296
     23 H4          4.4210   -0.0377   -0.5550 H         1 <0>         0.1206
     24 H5          5.2009    0.9572    1.5481 H         1 <0>         0.1462
     25 H6          3.1966   -2.8649    1.6692 H         1 <0>         0.2011
@<TRIPOS>BOND
     1    1    7 2
     2    1    2 1
     3    1   20 1
     4    2    3 2
     5    2   17 1
     6    3    4 1
     7    3   21 1
     8    4    5 am
     9    4   10 1
    10    5    6 2
    11    5    7 1
    12    7    8 1
    13    8    9 3
    14   10   11 1
    15   10   22 1
    16   10   23 1
    17   11   15 2
    18   11   12 1
    19   12   13 2
    20   12   24 1
    21   13   14 1
    22   13   16 1
    23   14   15 1
    24   15   25 1
    25   17   18 2
    26   17   19 1
@<TRIPOS>MOLECULE
ZINC60657240
   33    35     0     0     0
SMALL
USER_CHARGES

@<TRIPOS>ATOM
      1 C1          0.6442    0.2716    1.1746 C.ar      1 <0>        -0.1489
      2 C2          1.8312    0.9795    1.1756 C.ar      1 <0>        -0.0548
      3 C3          2.3806    1.4130   -0.0210 C.ar      1 <0>         0.0397
      4 C4          1.7365    1.1349   -1.2203 C.ar      1 <0>         0.1332
      5 C5          0.5489    0.4264   -1.2176 C.ar      1 <0>        -0.1802
      6 C6          0.0028   -0.0053   -0.0205 C.ar      1 <0>         0.1429
      7 F1         -1.1572   -0.6979   -0.0189 F         1 <0>        -0.1223
      8 F2          2.2696    1.5567   -2.3879 F         1 <0>        -0.1188
      9 O1          3.5483    2.1100   -0.0210 O.3       1 <0>        -0.2765
     10 C7          3.4837    3.4530   -0.1173 C.2       1 <0>         0.5271
     11 O2          2.4043    4.0122   -0.1022 O.2       1 <0>        -0.4875
     12 C8          4.7193    4.2419   -0.2406 C.2       1 <0>        -0.2085
     13 C9          4.6670    5.6116   -0.3339 C.2       1 <0>         0.2090
     14 N1          5.7948    6.3616   -0.4508 N.pl3     1 <0>        -0.5067
     15 C10         5.5818    7.8032   -0.6174 C.3       1 <0>         0.0927
     16 C11         6.6580    8.5948    0.1314 C.3       1 <0>        -0.6808
     17 S1          8.2680    8.0581   -0.5288 S.o2      1 <0>         2.5510
     18 O3          9.3135    8.4127    0.3659 O.2       1 <0>        -0.9337
     19 O4          8.3604    8.3585   -1.9146 O.2       1 <0>        -0.9550
     20 N2          8.1746    6.4086   -0.4498 N.2       1 <0>        -0.9522
     21 C12         7.0274    5.7698   -0.4232 C.2       1 <0>         0.5180
     22 C13         7.1327    4.3467   -0.3552 C.2       1 <0>        -0.1514
     23 C14         6.0261    3.5807   -0.2601 C.2       1 <0>         0.0080
     24 H1          0.2189   -0.0698    2.1068 H         1 <0>         0.1558
     25 H2          2.3306    1.1952    2.1087 H         1 <0>         0.1560
     26 H3          0.0473    0.2096   -2.1492 H         1 <0>         0.1598
     27 H4          3.7063    6.1046   -0.3141 H         1 <0>         0.1915
     28 H5          5.6239    8.0529   -1.6775 H         1 <0>         0.1185
     29 H6          4.6007    8.0696   -0.2243 H         1 <0>         0.1307
     30 H7          6.5223    9.6624   -0.0414 H         1 <0>         0.1589
     31 H8          6.6032    8.3797    1.1985 H         1 <0>         0.1433
     32 H9          8.1066    3.8803   -0.3756 H         1 <0>         0.1753
     33 H10         6.1019    2.5048   -0.2042 H         1 <0>         0.1658
@<TRIPOS>BOND
     1    1    6 ar
     2    1    2 ar
     3    1   24 1
     4    2    3 ar
     5    2   25 1
     6    3    4 ar
     7    3    9 1
     8    4    5 ar
     9    4    8 1
    10    5    6 ar
    11    5   26 1
    12    6    7 1
    13    9   10 1
    14   10   11 2
    15   10   12 1
    16   12   23 1
    17   12   13 2
    18   13   14 1
    19   13   27 1
    20   14   21 1
    21   14   15 1
    22   15   16 1
    23   15   28 1
    24   15   29 1
    25   16   17 1
    26   16   30 1
    27   16   31 1
    28   17   18 2
    29   17   19 2
    30   17   20 1
    31   20   21 2
    32   21   22 1
    33   22   23 2
    34   22   32 1
    35   23   33 1
@<TRIPOS>MOLECULE
ZINC04483611
   40    43     0     0     0
SMALL
USER_CHARGES

@<TRIPOS>ATOM
      1 C1         -0.0184    1.5028    0.0103 C.3       1 <0>        -0.1172
      2 C2          0.0021   -0.0041    0.0020 C.ar      1 <0>        -0.0879
      3 C3          0.0058   -0.6875   -1.2001 C.ar      1 <0>        -0.0971
      4 C4          0.0245   -2.0685   -1.2108 C.ar      1 <0>        -0.1313
      5 C5          0.0401   -2.7705   -0.0132 C.ar      1 <0>         0.1124
      6 C6          0.0368   -2.0816    1.1921 C.ar      1 <0>        -0.1325
      7 C7          0.0229   -0.7004    1.1965 C.ar      1 <0>        -0.0978
      8 N1          0.0586   -4.1723   -0.0209 N.am      1 <0>        -0.5284
      9 C8          0.0685   -4.9239   -1.1610 C.2       1 <0>         0.5579
     10 O1         -0.1873   -4.5451   -2.2838 O.2       1 <0>        -0.4168
     11 C9          0.4581   -6.3090   -0.7476 C.3       1 <0>        -0.0514
     12 H1          1.5397   -6.4399   -0.7142 H         1 <0>         0.1701
     13 C10        -0.2100   -6.2778    0.6828 C.3       1 <0>         0.0390
     14 H2         -1.2532   -6.1629    0.3886 H         1 <0>         0.0830
     15 C11         0.0747   -4.9400    1.1161 C.2       1 <0>         0.5894
     16 O2          0.2838   -4.5651    2.2499 O.2       1 <0>        -0.4315
     17 N2         -0.1896   -7.6441    0.9758 N.pl3     1 <0>        -0.5297
     18 N3         -0.5484   -8.2198   -0.2865 N.2       1 <0>         0.1177
     19 N4         -0.2203   -7.4815   -1.2691 N.2       1 <0>        -0.1880
     20 C12         0.1185   -8.3130    2.2422 C.3       1 <0>         0.2108
     21 C13        -1.1479   -8.4847    3.0407 C.ar      1 <0>        -0.1344
     22 C14        -1.5492   -7.4965    3.9203 C.ar      1 <0>        -0.0704
     23 C15        -2.7106   -7.6527    4.6528 C.ar      1 <0>        -0.1572
     24 C16        -3.4725   -8.7994    4.5055 C.ar      1 <0>         0.1096
     25 C17        -3.0696   -9.7885    3.6242 C.ar      1 <0>        -0.1568
     26 C18        -1.9106   -9.6277    2.8889 C.ar      1 <0>        -0.0617
     27 F1         -4.6078   -8.9534    5.2213 F         1 <0>        -0.1370
     28 H3          1.0042    1.8801    0.0026 H         1 <0>         0.0740
     29 H4         -0.5455    1.8639   -0.8728 H         1 <0>         0.0694
     30 H5         -0.5286    1.8543    0.9071 H         1 <0>         0.0691
     31 H6         -0.0064   -0.1408   -2.1314 H         1 <0>         0.1335
     32 H7          0.0266   -2.6018   -2.1500 H         1 <0>         0.1502
     33 H8          0.0485   -2.6250    2.1253 H         1 <0>         0.1507
     34 H9          0.0241   -0.1639    2.1338 H         1 <0>         0.1331
     35 H10         0.5558   -9.2907    2.0397 H         1 <0>         0.1051
     36 H11         0.8266   -7.7088    2.8094 H         1 <0>         0.1032
     37 H12        -0.9546   -6.6023    4.0354 H         1 <0>         0.1349
     38 H13        -3.0237   -6.8808    5.3402 H         1 <0>         0.1373
     39 H14        -3.6629  -10.6835    3.5087 H         1 <0>         0.1388
     40 H15        -1.5985  -10.3971    2.1982 H         1 <0>         0.1377
@<TRIPOS>BOND
     1    1    2 1
     2    1   28 1
     3    1   29 1
     4    1   30 1
     5    2    7 ar
     6    2    3 ar
     7    3    4 ar
     8    3   31 1
     9    4    5 ar
    10    4   32 1
    11    5    6 ar
    12    5    8 1
    13    6    7 ar
    14    6   33 1
    15    7   34 1
    16    8   15 am
    17    8    9 am
    18    9   10 2
    19    9   11 1
    20   11   12 1
    21   11   19 1
    22   11   13 1
    23   13   14 1
    24   13   15 1
    25   13   17 1
    26   15   16 2
    27   17   18 1
    28   17   20 1
    29   18   19 2
    30   20   21 1
    31   20   35 1
    32   20   36 1
    33   21   26 ar
    34   21   22 ar
    35   22   23 ar
    36   22   37 1
    37   23   24 ar
    38   23   38 1
    39   24   25 ar
    40   24   27 1
    41   25   26 ar
    42   25   39 1
    43   26   40 1
@<TRIPOS>MOLECULE
ZINC66648785
   44    46     0     0     0
SMALL
USER_CHARGES

@<TRIPOS>ATOM
      1 C1          0.2527    1.9635    0.2323 C.3       1 <0>        -0.0957
      2 C2          0.2647    0.4635    0.0877 C.2       1 <0>        -0.0679
      3 C3          0.3251   -0.2992   -1.1588 C.ar      1 <0>        -0.1029
      4 C4          0.3862    0.0489   -2.5115 C.ar      1 <0>        -0.0950
      5 C5          0.4333   -0.9298   -3.4632 C.ar      1 <0>        -0.0950
      6 C6          0.4210   -2.2689   -3.0977 C.ar      1 <0>        -0.1790
      7 C7          0.3610   -2.6360   -1.7665 C.ar      1 <0>         0.1415
      8 C8          0.3122   -1.6525   -0.7786 C.ar      1 <0>         0.0476
      9 O1          0.2500   -1.6978    0.5670 O.3       1 <0>        -0.1745
     10 C9          0.2274   -0.4536    1.0886 C.2       1 <0>        -0.0332
     11 C10         0.1680   -0.1386    2.5231 C.2       1 <0>         0.6238
     12 O2          0.1488    1.0209    2.8910 O.2       1 <0>        -0.4942
     13 N1          0.1348   -1.1342    3.4310 N.am      1 <0>        -0.5953
     14 C11         0.1627   -2.5568    3.0268 C.3       1 <0>         0.1606
     15 S1          0.7913   -3.3557    4.5691 S.3       1 <0>        -0.2509
     16 C12         0.0620   -2.1329    5.7479 C.3       1 <0>        -0.0603
     17 C13         0.0759   -0.8657    4.8579 C.3       1 <0>         0.1152
     18 H1          0.9377   -0.2569    5.1312 H         1 <0>         0.1173
     19 C14        -1.1726   -0.0717    5.1440 C.2       1 <0>         0.5111
     20 O3         -2.0934   -0.0843    4.3548 O.2       1 <0>        -0.5181
     21 N2         -1.2659    0.6525    6.2768 N.am      1 <0>        -0.6162
     22 C15        -2.5179    1.3378    6.6071 C.3       1 <0>         0.0852
     23 C16        -0.1153    0.7543    7.1779 C.3       1 <0>         0.0692
     24 O4          0.3500   -3.9510   -1.4212 O.3       1 <0>        -0.3125
     25 C17         0.4027   -4.9020   -2.4866 C.3       1 <0>         0.0255
     26 H2          1.2766    2.3292    0.3096 H         1 <0>         0.0808
     27 H3         -0.2273    2.4087   -0.6392 H         1 <0>         0.0732
     28 H4         -0.2998    2.2375    1.1311 H         1 <0>         0.0915
     29 H5          0.3958    1.0888   -2.8032 H         1 <0>         0.1344
     30 H6          0.4801   -0.6598   -4.5078 H         1 <0>         0.1370
     31 H7          0.4583   -3.0317   -3.8613 H         1 <0>         0.1438
     32 H8         -0.8371   -2.9138    2.7799 H         1 <0>         0.1056
     33 H9          0.8498   -2.7147    2.1955 H         1 <0>         0.1334
     34 H10        -0.9530   -2.4121    6.0308 H         1 <0>         0.1100
     35 H11         0.6942   -2.0037    6.6263 H         1 <0>         0.1361
     36 H12        -3.1512    0.6738    7.1955 H         1 <0>         0.0573
     37 H13        -2.2990    2.2365    7.1838 H         1 <0>         0.0732
     38 H14        -3.0350    1.6129    5.6879 H         1 <0>         0.0782
     39 H15         0.7405    0.2463    6.7333 H         1 <0>         0.0770
     40 H16         0.1287    1.8045    7.3384 H         1 <0>         0.0709
     41 H17        -0.3590    0.2879    8.1325 H         1 <0>         0.0680
     42 H18        -0.4586   -4.7635   -3.1401 H         1 <0>         0.0593
     43 H19         1.3194   -4.7569   -3.0581 H         1 <0>         0.0593
     44 H20         0.3874   -5.9108   -2.0742 H         1 <0>         0.1047
@<TRIPOS>BOND
     1    1    2 1
     2    1   26 1
     3    1   27 1
     4    1   28 1
     5    2   10 2
     6    2    3 1
     7    3    8 ar
     8    3    4 ar
     9    4    5 ar
    10    4   29 1
    11    5    6 ar
    12    5   30 1
    13    6    7 ar
    14    6   31 1
    15    7    8 ar
    16    7   24 1
    17    8    9 1
    18    9   10 1
    19   10   11 1
    20   11   12 2
    21   11   13 am
    22   13   17 1
    23   13   14 1
    24   14   15 1
    25   14   32 1
    26   14   33 1
    27   15   16 1
    28   16   17 1
    29   16   34 1
    30   16   35 1
    31   17   18 1
    32   17   19 1
    33   19   20 2
    34   19   21 am
    35   21   22 1
    36   21   23 1
    37   22   36 1
    38   22   37 1
    39   22   38 1
    40   23   39 1
    41   23   40 1
    42   23   41 1
    43   24   25 1
    44   25   42 1
    45   25   43 1
    46   25   44 1
@<TRIPOS>MOLECULE
ZINC06596839
   45    48     0     0     0
SMALL
USER_CHARGES
1-(dimethylBLAHyl)pyrrolidine-2-carboxamide
@<TRIPOS>ATOM
      1 C1          5.0379   -0.3604    6.4802 C.3       1 <0>        -0.0846
      2 C2          4.0382    0.2136    5.5095 C.ar      1 <0>         0.3399
      3 N1          2.7551    0.0393    5.7556 N.ar      1 <0>        -0.5681
      4 C3          1.7788    0.4974    4.9746 C.ar      1 <0>         0.4027
      5 C4          2.1957    1.2126    3.8149 C.ar      1 <0>        -0.1623
      6 C5          1.3446    1.8149    2.8022 C.2       1 <0>        -0.0614
      7 C6          1.9689    2.4485    1.7835 C.2       1 <0>        -0.1492
      8 S1          3.7038    2.2764    2.1189 S.3       1 <0>         0.1089
      9 C7          3.5925    1.3577    3.6202 C.ar      1 <0>         0.1084
     10 N2          4.4938    0.8692    4.4487 N.ar      1 <0>        -0.4596
     11 C8          1.3305    3.1456    0.6218 C.3       1 <0>        -0.0349
     12 C9         -0.1440    2.7241    0.5511 C.3       1 <0>        -0.0873
     13 H1         -0.2134    1.6924    0.2062 H         1 <0>         0.0752
     14 C10        -0.7543    2.8400    1.9510 C.3       1 <0>        -0.1150
     15 C11        -0.1797    1.7523    2.8586 C.3       1 <0>        -0.0637
     16 C12        -0.8942    3.6407   -0.4174 C.3       1 <0>        -0.1470
     17 N3          0.4433    0.2922    5.2707 N.pl3     1 <0>        -0.4482
     18 C13         0.0399   -1.0916    4.9605 C.3       1 <0>         0.0526
     19 C14        -0.5296   -1.7035    6.2577 C.3       1 <0>        -0.1354
     20 C15        -0.9416   -0.4551    7.0814 C.3       1 <0>        -0.1159
     21 C16         0.1717    0.5524    6.7005 C.3       1 <0>         0.0486
     22 H2          1.0667    0.3720    7.2958 H         1 <0>         0.1072
     23 C17        -0.3120    1.9666    6.8937 C.2       1 <0>         0.5226
     24 O1         -0.4260    2.7044    5.9379 O.2       1 <0>        -0.5147
     25 N4         -0.6180    2.4113    8.1286 N.am      1 <0>        -0.8550
     26 H3          5.2952   -1.3758    6.1788 H         1 <0>         0.0888
     27 H4          5.9365    0.2564    6.4835 H         1 <0>         0.0888
     28 H5          4.6049   -0.3770    7.4803 H         1 <0>         0.0869
     29 H6          1.8375    2.8605   -0.3000 H         1 <0>         0.0837
     30 H7          1.3966    4.2251    0.7573 H         1 <0>         0.0872
     31 H8         -0.5215    3.8200    2.3676 H         1 <0>         0.0652
     32 H9         -1.8360    2.7230    1.8855 H         1 <0>         0.0689
     33 H10        -0.5178    0.7744    2.5158 H         1 <0>         0.0686
     34 H11        -0.5140    1.9155    3.8832 H         1 <0>         0.1186
     35 H12        -0.4517    3.5603   -1.4102 H         1 <0>         0.0567
     36 H13        -1.9419    3.3432   -0.4614 H         1 <0>         0.0591
     37 H14        -0.8235    4.6716   -0.0704 H         1 <0>         0.0570
     38 H15        -0.7253   -1.0896    4.1843 H         1 <0>         0.0947
     39 H16         0.9053   -1.6641    4.6264 H         1 <0>         0.0644
     40 H17        -1.3978   -2.3261    6.0413 H         1 <0>         0.0881
     41 H18         0.2354   -2.2760    6.7821 H         1 <0>         0.0786
     42 H19        -1.9211   -0.0897    6.7731 H         1 <0>         0.0856
     43 H20        -0.9258   -0.6698    8.1500 H         1 <0>         0.0895
     44 H21        -0.5269    1.8212    8.8931 H         1 <0>         0.4007
     45 H22        -0.9293    3.3216    8.2530 H         1 <0>         0.4047
@<TRIPOS>BOND
     1    1    2 1
     2    1   26 1
     3    1   27 1
     4    1   28 1
     5    2   10 ar
     6    2    3 ar
     7    3    4 ar
     8    4    5 ar
     9    4   17 1
    10    5    9 ar
    11    5    6 1
    12    6   15 1
    13    6    7 2
    14    7    8 1
    15    7   11 1
    16    8    9 1
    17    9   10 ar
    18   11   12 1
    19   11   29 1
    20   11   30 1
    21   12   13 1
    22   12   14 1
    23   12   16 1
    24   14   15 1
    25   14   31 1
    26   14   32 1
    27   15   33 1
    28   15   34 1
    29   16   35 1
    30   16   36 1
    31   16   37 1
    32   17   21 1
    33   17   18 1
    34   18   19 1
    35   18   38 1
    36   18   39 1
    37   19   20 1
    38   19   40 1
    39   19   41 1
    40   20   21 1
    41   20   42 1
    42   20   43 1
    43   21   22 1
    44   21   23 1
    45   23   24 2
    46   23   25 am
    47   25   44 1
    48   25   45 1
@<TRIPOS>MOLECULE
ZINC32106162
   44    47     0     0     0
SMALL
USER_CHARGES
(3R,3aS,6aS)-5-cyclohexyl-6a-hydroxy-3-phenyl-1,3,3a,4-tetrahydropyrrolo[3,4-c]isoxazol-6-one
@<TRIPOS>ATOM
      1 C1          2.9672   -3.9270   -0.5889 C.ar      1 <0>        -0.1127
      2 C2          2.7687   -3.7648    0.7694 C.ar      1 <0>        -0.1210
      3 C3          2.1542   -2.6222    1.2466 C.ar      1 <0>        -0.1049
      4 C4          1.7382   -1.6417    0.3654 C.ar      1 <0>        -0.1046
      5 C5          1.9320   -1.8062   -0.9933 C.ar      1 <0>        -0.0889
      6 C6          2.5513   -2.9465   -1.4701 C.ar      1 <0>        -0.1216
      7 C7          1.0679   -0.3963    0.8856 C.3       1 <0>         0.1257
      8 H1          0.6343   -0.6220    1.8710 H         1 <0>         0.0979
      9 C8          2.0710    0.7731    0.9086 C.3       1 <0>        -0.0979
     10 H2          3.0808    0.4274    0.6425 H         1 <0>         0.1305
     11 C9          2.0082    1.4493    2.2950 C.3       1 <0>         0.1052
     12 N1          1.9442    2.8910    2.0354 N.am      1 <0>        -0.5995
     13 C10         1.5995    3.1443    0.7625 C.2       1 <0>         0.5282
     14 O1          1.4558    4.2531    0.2925 O.2       1 <0>        -0.5108
     15 C11         1.4170    1.8552   -0.0015 C.3       1 <0>         0.2256
     16 N2         -0.0180    1.4725    0.0101 N.3       1 <0>        -0.4691
     17 O2          0.0021   -0.0041    0.0020 O.3       1 <0>        -0.2158
     18 O3          1.9723    1.8915   -1.3177 O.3       1 <0>        -0.5721
     19 C12         2.2209    3.9235    3.0371 C.3       1 <0>         0.1619
     20 C13         0.9804    4.7997    3.2226 C.3       1 <0>        -0.1344
     21 C14         1.2695    5.8781    4.2688 C.3       1 <0>        -0.1153
     22 C15         2.4399    6.7441    3.7986 C.3       1 <0>        -0.1243
     23 C16         3.6804    5.8679    3.6131 C.3       1 <0>        -0.1150
     24 C17         3.3913    4.7896    2.5669 C.3       1 <0>        -0.1348
     25 H3          3.4470   -4.8198   -0.9618 H         1 <0>         0.1238
     26 H4          3.0934   -4.5310    1.4579 H         1 <0>         0.1258
     27 H5          1.9988   -2.4957    2.3079 H         1 <0>         0.1252
     28 H6          1.6031   -1.0422   -1.6821 H         1 <0>         0.1247
     29 H7          2.7060   -3.0733   -2.5314 H         1 <0>         0.1238
     30 H8          1.1139    1.1011    2.8326 H         1 <0>         0.0890
     31 H9          2.9077    1.1877    2.8716 H         1 <0>         0.0922
     32 H10        -0.4947    1.8322   -0.8031 H         1 <0>         0.3640
     33 H11         1.5932    2.6146   -2.0548 H         1 <0>         0.4248
     34 H12         2.4736    3.4063    3.9745 H         1 <0>         0.0916
     35 H13         0.7222    5.2770    2.2658 H         1 <0>         0.0806
     36 H14         0.1389    4.1771    3.5606 H         1 <0>         0.0659
     37 H15         0.3776    6.5080    4.4021 H         1 <0>         0.0678
     38 H16         1.5277    5.4009    5.2257 H         1 <0>         0.0636
     39 H17         2.1817    7.2214    2.8418 H         1 <0>         0.0649
     40 H18         2.6477    7.5194    4.5507 H         1 <0>         0.0651
     41 H19         4.5219    6.4905    3.2751 H         1 <0>         0.0675
     42 H20         3.9386    5.3906    4.5699 H         1 <0>         0.0638
     43 H21         4.2832    4.1597    2.4335 H         1 <0>         0.0640
     44 H22         3.1331    5.2669    1.6101 H         1 <0>         0.0798
@<TRIPOS>BOND
     1    1    6 ar
     2    1    2 ar
     3    1   25 1
     4    2    3 ar
     5    2   26 1
     6    3    4 ar
     7    3   27 1
     8    4    5 ar
     9    4    7 1
    10    5    6 ar
    11    5   28 1
    12    6   29 1
    13    7    8 1
    14    7   17 1
    15    7    9 1
    16    9   10 1
    17    9   15 1
    18    9   11 1
    19   11   12 1
    20   11   30 1
    21   11   31 1
    22   12   13 am
    23   12   19 1
    24   13   14 2
    25   13   15 1
    26   15   16 1
    27   15   18 1
    28   16   17 1
    29   16   32 1
    30   18   33 1
    31   19   24 1
    32   19   20 1
    33   19   34 1
    34   20   21 1
    35   20   35 1
    36   20   36 1
    37   21   22 1
    38   21   37 1
    39   21   38 1
    40   22   23 1
    41   22   39 1
    42   22   40 1
    43   23   24 1
    44   23   41 1
    45   23   42 1
    46   24   43 1
    47   24   44 1
@<TRIPOS>MOLECULE
ZINC39358996
   42    45     0     0     0
SMALL
USER_CHARGES

@<TRIPOS>ATOM
      1 C1         -0.0184    1.5028    0.0103 C.3       1 <0>        -0.0970
      2 C2          0.0021   -0.0041    0.0020 C.2       1 <0>        -0.1015
      3 C3          0.0059   -0.6990   -1.1929 C.2       1 <0>        -0.1478
      4 C4          0.0244   -2.0540   -1.1652 C.2       1 <0>        -0.1685
      5 S1          0.0371   -2.3874    0.5887 S.3       1 <0>         0.0048
      6 C5          0.0226   -0.6981    1.1661 C.2       1 <0>        -0.1236
      7 C6          0.0297   -0.1787    2.5808 C.3       1 <0>         0.1472
      8 H1          0.0154    0.9112    2.5766 H         1 <0>         0.1184
      9 C7         -1.1618   -0.7031    3.3243 C.2       1 <0>        -0.1795
     10 C8         -2.3287   -0.2027    3.6666 C.2       1 <0>         0.1796
     11 N1         -2.9999   -1.0780    4.4642 N.2       1 <0>        -0.1465
     12 N2         -2.4108   -2.1496    4.6574 N.2       1 <0>        -0.1316
     13 C9         -1.1653   -2.1272    3.8883 C.3       1 <0>         0.2161
     14 H2         -1.1528   -2.8849    3.1049 H         1 <0>         0.1554
     15 N3          0.0289   -2.1752    4.7353 N.pl3     1 <0>        -0.6931
     16 C10         1.1979   -1.6147    4.2842 C.2       1 <0>         0.2709
     17 C11         1.2669   -0.6789    3.3114 C.2       1 <0>        -0.3176
     18 C12         2.4932   -0.1143    2.9220 C.2       1 <0>         0.4099
     19 O1          2.5075    0.7212    2.0396 O.2       1 <0>        -0.4737
     20 C13         3.7877   -0.5180    3.5704 C.3       1 <0>        -0.1583
     21 C14         3.4986   -0.9806    5.0027 C.3       1 <0>        -0.0530
     22 C15         2.4665   -2.1143    4.9457 C.3       1 <0>        -0.0940
     23 C16         4.7880   -1.4893    5.6504 C.3       1 <0>        -0.1423
     24 C17         2.9367    0.1860    5.8177 C.3       1 <0>        -0.1521
     25 O2         -2.7971    1.0131    3.2798 O.3       1 <0>        -0.4345
     26 H3          1.0042    1.8801    0.0026 H         1 <0>         0.0771
     27 H4         -0.5455    1.8639   -0.8728 H         1 <0>         0.0614
     28 H5         -0.5286    1.8543    0.9071 H         1 <0>         0.0641
     29 H6         -0.0059   -0.1702   -2.1345 H         1 <0>         0.1346
     30 H7          0.0298   -2.7512   -1.9900 H         1 <0>         0.1856
     31 H8         -0.0062   -2.5989    5.6072 H         1 <0>         0.4193
     32 H9          4.2397   -1.3344    3.0070 H         1 <0>         0.0993
     33 H10         4.4671    0.3341    3.5917 H         1 <0>         0.0969
     34 H11         2.2395   -2.4512    5.9572 H         1 <0>         0.0896
     35 H12         2.8725   -2.9459    4.3698 H         1 <0>         0.1037
     36 H13         5.5251   -0.6865    5.6718 H         1 <0>         0.0643
     37 H14         4.5782   -1.8172    6.6686 H         1 <0>         0.0613
     38 H15         5.1792   -2.3265    5.0724 H         1 <0>         0.0607
     39 H16         2.0131    0.5385    5.3584 H         1 <0>         0.0608
     40 H17         2.7324   -0.1469    6.8353 H         1 <0>         0.0599
     41 H18         3.6641    0.9974    5.8399 H         1 <0>         0.0632
     42 H19        -3.6760    1.2236    3.6236 H         1 <0>         0.4103
@<TRIPOS>BOND
     1    1    2 1
     2    1   26 1
     3    1   27 1
     4    1   28 1
     5    2    6 2
     6    2    3 1
     7    3    4 2
     8    3   29 1
     9    4    5 1
    10    4   30 1
    11    5    6 1
    12    6    7 1
    13    7    8 1
    14    7   17 1
    15    7    9 1
    16    9   13 1
    17    9   10 2
    18   10   11 1
    19   10   25 1
    20   11   12 2
    21   12   13 1
    22   13   14 1
    23   13   15 1
    24   15   16 1
    25   15   31 1
    26   16   22 1
    27   16   17 2
    28   17   18 1
    29   18   19 2
    30   18   20 1
    31   20   21 1
    32   20   32 1
    33   20   33 1
    34   21   22 1
    35   21   23 1
    36   21   24 1
    37   22   34 1
    38   22   35 1
    39   23   36 1
    40   23   37 1
    41   23   38 1
    42   24   39 1
    43   24   40 1
    44   24   41 1
    45   25   42 1
@<TRIPOS>MOLECULE
ZINC50867493
   37    39     0     0     0
SMALL
USER_CHARGES

@<TRIPOS>ATOM
      1 C1         -0.0184    1.5028    0.0103 C.3       1 <0>        -0.0993
      2 C2          0.0021   -0.0041    0.0020 C.ar      1 <0>        -0.2592
      3 C3          0.0061   -0.7041   -1.1897 C.ar      1 <0>         0.2065
      4 N1          0.0247   -2.0277   -1.1637 N.ar      1 <0>        -0.5456
      5 C4          0.0394   -2.6866   -0.0127 C.ar      1 <0>         0.4019
      6 N2          0.0357   -2.0523    1.1518 N.ar      1 <0>        -0.5708
      7 C5          0.0232   -0.7247    1.1987 C.ar      1 <0>         0.4480
      8 N3          0.0253   -0.0644    2.4168 N.pl3     1 <0>        -0.8342
      9 C6          0.0599   -4.1685   -0.0284 C.ar      1 <0>        -0.0250
     10 C7          0.0698   -4.8796    1.1725 C.ar      1 <0>        -0.0628
     11 C8          0.0881   -6.2610    1.1486 C.ar      1 <0>         0.0681
     12 C9          0.0973   -6.9389   -0.0639 C.ar      1 <0>         0.0950
     13 C10         0.0875   -6.2344   -1.2587 C.ar      1 <0>        -0.0466
     14 C11         0.0637   -4.8532   -1.2427 C.ar      1 <0>        -0.0535
     15 Cl1         0.0994   -7.0867   -2.7711 Cl        1 <0>        -0.0412
     16 O1          0.1150   -8.3032   -0.0721 O.3       1 <0>        -0.3074
     17 C12         1.3164   -8.9157    0.4002 C.3       1 <0>         0.0596
     18 C13         1.3003   -9.0380    1.9158 C.3       1 <0>        -0.1888
     19 C14         1.2992   -7.6828    2.6056 C.3       1 <0>         0.0576
     20 O2          0.0963   -6.9679    2.3162 O.3       1 <0>        -0.3109
     21 C15        -0.0109    0.0314   -2.5049 C.3       1 <0>        -0.1096
     22 H1          1.0042    1.8801    0.0026 H         1 <0>         0.0721
     23 H2         -0.5455    1.8639   -0.8728 H         1 <0>         0.0772
     24 H3         -0.5286    1.8543    0.9071 H         1 <0>         0.0623
     25 H4          0.0121    0.9052    2.4429 H         1 <0>         0.4127
     26 H5          0.0401   -0.5716    3.2434 H         1 <0>         0.4088
     27 H6          0.0634   -4.3529    2.1153 H         1 <0>         0.1547
     28 H7          0.0516   -4.3031   -2.1721 H         1 <0>         0.1584
     29 H8          1.4092   -9.9090   -0.0389 H         1 <0>         0.1095
     30 H9          2.1707   -8.3096    0.0982 H         1 <0>         0.0598
     31 H10         0.4085   -9.5879    2.2162 H         1 <0>         0.0868
     32 H11         2.1809   -9.5957    2.2344 H         1 <0>         0.0940
     33 H12         1.3797   -7.8285    3.6828 H         1 <0>         0.1084
     34 H13         2.1539   -7.1025    2.2579 H         1 <0>         0.0595
     35 H14         1.0125    0.2234   -2.8271 H         1 <0>         0.0869
     36 H15        -0.5199   -0.5753   -3.2539 H         1 <0>         0.0839
     37 H16        -0.5377    0.9781   -2.3850 H         1 <0>         0.0833
@<TRIPOS>BOND
     1    1    2 1
     2    1   22 1
     3    1   23 1
     4    1   24 1
     5    2    7 ar
     6    2    3 ar
     7    3    4 ar
     8    3   21 1
     9    4    5 ar
    10    5    6 ar
    11    5    9 1
    12    6    7 ar
    13    7    8 1
    14    8   25 1
    15    8   26 1
    16    9   14 ar
    17    9   10 ar
    18   10   11 ar
    19   10   27 1
    20   11   20 1
    21   11   12 ar
    22   12   13 ar
    23   12   16 1
    24   13   14 ar
    25   13   15 1
    26   14   28 1
    27   16   17 1
    28   17   18 1
    29   17   29 1
    30   17   30 1
    31   18   19 1
    32   18   31 1
    33   18   32 1
    34   19   20 1
    35   19   33 1
    36   19   34 1
    37   21   35 1
    38   21   36 1
    39   21   37 1
@<TRIPOS>MOLECULE
ZINC65528181
   43    47     0     0     0
SMALL
USER_CHARGES

@<TRIPOS>ATOM
      1 C1         -0.4125    0.9051    0.4801 C.ar      1 <0>        -0.1711
      2 C2          0.7117    1.7067    0.4034 C.ar      1 <0>        -0.0664
      3 C3          1.9640    1.1342    0.2971 C.ar      1 <0>        -0.1915
      4 C4          2.0936   -0.2486    0.2677 C.ar      1 <0>         0.2370
      5 C5          0.9622   -1.0508    0.3455 C.ar      1 <0>        -0.1925
      6 C6         -0.2871   -0.4717    0.4512 C.ar      1 <0>        -0.0626
      7 N1          3.3585   -0.8309    0.1598 N.pl3     1 <0>        -0.4473
      8 C7          3.6783   -2.2588    0.1088 C.3       1 <0>         0.4208
      9 H1          3.4045   -2.6769   -0.8598 H         1 <0>         0.0933
     10 C8          5.1850   -2.3029    0.3025 C.2       1 <0>        -0.2918
     11 C9          5.6327   -1.0816    0.2318 C.2       1 <0>         0.1633
     12 N2          4.5979   -0.1710    0.0707 N.pl3     1 <0>        -0.5446
     13 C10         5.8995   -3.5945    0.6213 C.3       1 <0>         0.0501
     14 H2          6.9590   -3.4039    0.7924 H         1 <0>         0.1059
     15 C11         5.2489   -4.1419    1.9002 C.3       1 <0>        -0.1255
     16 C12         3.7724   -3.9111    1.9145 C.2       1 <0>         0.5287
     17 O1          3.1267   -4.6133    2.6633 O.2       1 <0>        -0.5518
     18 N3          3.0656   -3.0253    1.1864 N.am      1 <0>        -0.7269
     19 C13         5.7267   -4.5745   -0.5104 C.2       1 <0>        -0.0714
     20 C14         4.8660   -5.6346   -0.4374 C.2       1 <0>        -0.0905
     21 C15         4.6959   -6.5189   -1.5865 C.2       1 <0>        -0.1335
     22 C16         5.5534   -6.5501   -2.6131 C.2       1 <0>        -0.1043
     23 C17         6.7741   -5.6809   -2.5672 C.3       1 <0>         0.0594
     24 H3          7.6007   -6.2296   -2.1157 H         1 <0>         0.1450
     25 C18         6.4347   -4.4618   -1.7204 C.2       1 <0>        -0.0702
     26 C19         6.9133   -3.4109   -2.4061 C.2       1 <0>        -0.1720
     27 C20         7.2815   -3.8285   -3.7049 C.2       1 <0>         0.1365
     28 N4          7.1908   -5.1279   -3.8472 N.2       1 <0>        -0.4722
     29 H4         -1.3903    1.3554    0.5673 H         1 <0>         0.1238
     30 H5          0.6103    2.7817    0.4263 H         1 <0>         0.1254
     31 H6          2.8416    1.7608    0.2366 H         1 <0>         0.1164
     32 H7          1.0594   -2.1262    0.3225 H         1 <0>         0.1207
     33 H8         -1.1671   -1.0949    0.5113 H         1 <0>         0.1285
     34 H9          6.6771   -0.8123    0.2874 H         1 <0>         0.1778
     35 H10         4.7118    0.7806   -0.0793 H         1 <0>         0.4327
     36 H11         5.4416   -5.2127    1.9664 H         1 <0>         0.1105
     37 H12         5.6938   -3.6483    2.7642 H         1 <0>         0.1103
     38 H13         2.1273   -2.8804    1.3853 H         1 <0>         0.4005
     39 H14         4.3117   -5.8180    0.4712 H         1 <0>         0.1285
     40 H15         3.8402   -7.1773   -1.6087 H         1 <0>         0.1249
     41 H16         5.3692   -7.1919   -3.4619 H         1 <0>         0.1321
     42 H17         7.0024   -2.4044   -2.0248 H         1 <0>         0.1430
     43 H18         7.6077   -3.1562   -4.4847 H         1 <0>         0.1709
@<TRIPOS>BOND
     1    1    6 ar
     2    1    2 ar
     3    1   29 1
     4    2    3 ar
     5    2   30 1
     6    3    4 ar
     7    3   31 1
     8    4    5 ar
     9    4    7 1
    10    5    6 ar
    11    5   32 1
    12    6   33 1
    13    7   12 1
    14    7    8 1
    15    8    9 1
    16    8   18 1
    17    8   10 1
    18   10   11 2
    19   10   13 1
    20   11   12 1
    21   11   34 1
    22   12   35 1
    23   13   14 1
    24   13   15 1
    25   13   19 1
    26   15   16 1
    27   15   36 1
    28   15   37 1
    29   16   17 2
    30   16   18 am
    31   18   38 1
    32   19   25 1
    33   19   20 2
    34   20   21 1
    35   20   39 1
    36   21   22 2
    37   21   40 1
    38   22   23 1
    39   22   41 1
    40   23   24 1
    41   23   28 1
    42   23   25 1
    43   25   26 2
    44   26   27 1
    45   26   42 1
    46   27   28 2
    47   27   43 1
@<TRIPOS>MOLECULE
ZINC05664449
   38    40     0     0     0
SMALL
USER_CHARGES
N-(5-oxo-2,6-diazabicyclo[5.4.0]undeca-2,8,10,12-tetraen-4-yl)-3-phenyl-prop-2-enamide
@<TRIPOS>ATOM
      1 C1          5.1260   -1.0483   -6.6586 C.ar      1 <0>        -0.1040
      2 C2          3.9566   -1.3739   -7.3233 C.ar      1 <0>        -0.1332
      3 C3          2.7967   -0.6730   -7.0689 C.ar      1 <0>        -0.0956
      4 C4          2.8041    0.3692   -6.1366 C.ar      1 <0>        -0.0832
      5 C5          3.9910    0.6956   -5.4730 C.ar      1 <0>        -0.0390
      6 C6          5.1413   -0.0185   -5.7341 C.ar      1 <0>        -0.1308
      7 C7          1.5703    1.1229   -5.8596 C.2       1 <0>        -0.0024
      8 C8          1.2352    1.4237   -4.5889 C.2       1 <0>        -0.2241
      9 C9          1.9566    0.8045   -3.4753 C.2       1 <0>         0.5477
     10 O1          2.7729   -0.0719   -3.6913 O.2       1 <0>        -0.5093
     11 N1          1.7166    1.2051   -2.2110 N.am      1 <0>        -0.7181
     12 C10         2.4384    0.5856   -1.0968 C.3       1 <0>         0.1089
     13 H1          3.4582    0.3527   -1.4033 H         1 <0>         0.1458
     14 C11         1.7341   -0.6762   -0.6738 C.2       1 <0>         0.1760
     15 N2          0.5128   -0.6785   -0.3220 N.2       1 <0>        -0.4715
     16 C12        -0.3216    0.3990   -0.2962 C.ar      1 <0>         0.0803
     17 C13        -1.6323    0.1987   -0.7572 C.ar      1 <0>        -0.0770
     18 C14        -2.5392    1.2334   -0.7620 C.ar      1 <0>        -0.1146
     19 C15        -2.1658    2.4830   -0.2977 C.ar      1 <0>        -0.0955
     20 C16        -0.8826    2.6950    0.1570 C.ar      1 <0>        -0.1303
     21 C17         0.0540    1.6592    0.1608 C.ar      1 <0>         0.1035
     22 N3          1.3267    1.9628    0.6266 N.am      1 <0>        -0.6541
     23 C18         2.4633    1.5270    0.0809 C.2       1 <0>         0.5203
     24 O2          3.5268    1.8910    0.5366 O.2       1 <0>        -0.5027
     25 H2          6.0313   -1.6010   -6.8621 H         1 <0>         0.1196
     26 H3          3.9525   -2.1789   -8.0433 H         1 <0>         0.1211
     27 H4          1.8848   -0.9284   -7.5881 H         1 <0>         0.1207
     28 H5          4.0055    1.5019   -4.7547 H         1 <0>         0.1109
     29 H6          6.0577    0.2295   -5.2192 H         1 <0>         0.1198
     30 H7          0.9337    1.4348   -6.6743 H         1 <0>         0.1401
     31 H8          0.4345    2.1213   -4.3924 H         1 <0>         0.1342
     32 H9          1.0660    1.9036   -2.0388 H         1 <0>         0.4035
     33 H10         2.2828   -1.6064   -0.6688 H         1 <0>         0.1774
     34 H11        -1.9303   -0.7755   -1.1156 H         1 <0>         0.1369
     35 H12        -3.5433    1.0698   -1.1245 H         1 <0>         0.1356
     36 H13        -2.8797    3.2934   -0.2956 H         1 <0>         0.1351
     37 H14        -0.5977    3.6735    0.5142 H         1 <0>         0.1336
     38 H15         1.3942    2.5346    1.4073 H         1 <0>         0.4143
@<TRIPOS>BOND
     1    1    6 ar
     2    1    2 ar
     3    1   25 1
     4    2    3 ar
     5    2   26 1
     6    3    4 ar
     7    3   27 1
     8    4    5 ar
     9    4    7 1
    10    5    6 ar
    11    5   28 1
    12    6   29 1
    13    7    8 2
    14    7   30 1
    15    8    9 1
    16    8   31 1
    17    9   10 2
    18    9   11 am
    19   11   12 1
    20   11   32 1
    21   12   13 1
    22   12   23 1
    23   12   14 1
    24   14   15 2
    25   14   33 1
    26   15   16 1
    27   16   21 ar
    28   16   17 ar
    29   17   18 ar
    30   17   34 1
    31   18   19 ar
    32   18   35 1
    33   19   20 ar
    34   19   36 1
    35   20   21 ar
    36   20   37 1
    37   21   22 1
    38   22   23 am
    39   22   38 1
    40   23   24 2
@<TRIPOS>MOLECULE
ZINC20813933
   41    43     0     0     0
SMALL
USER_CHARGES
(8S,8aS)-6-amino-2-ethyl-8-(2-thienyl)-1,3,8,8a-tetrahydroisoquinoline-5,7,7-tricarbonitrile
@<TRIPOS>ATOM
      1 C1          5.2913    3.9477   -2.2902 C.3       1 <0>        -0.1517
      2 C2          4.5353    4.5394   -1.0989 C.3       1 <0>         0.0488
      3 N1          3.3237    3.7483   -0.8459 N.3       1 <0>        -0.5269
      4 C3          3.6658    2.3931   -0.3781 C.3       1 <0>         0.0752
      5 C4          2.3854    1.5972   -0.3119 C.2       1 <0>        -0.1318
      6 C5          1.2522    2.1968    0.0019 C.2       1 <0>        -0.0445
      7 C6          1.1697    3.6538    0.3577 C.3       1 <0>        -0.0368
      8 H1          1.0153    3.7229    1.4446 H         1 <0>         0.0899
      9 C7          2.4548    4.4151    0.1278 C.3       1 <0>         0.0557
     10 C8         -0.0061    4.2636   -0.4070 C.3       1 <0>         0.0329
     11 H2          0.1271    4.1191   -1.4893 H         1 <0>         0.1409
     12 C9         -1.2997    3.5942    0.0587 C.3       1 <0>         0.2102
     13 C10        -1.1973    2.0993    0.0191 C.2       1 <0>         0.2567
     14 C11        -0.0173    1.4278    0.0099 C.2       1 <0>        -0.1422
     15 C12         0.0021   -0.0041    0.0020 C.1       1 <0>         0.2670
     16 N2          0.0175   -1.1399   -0.0042 N.1       1 <0>        -0.4300
     17 N3         -2.3545    1.3727   -0.0040 N.pl3     1 <0>        -0.8619
     18 C13        -1.5926    4.0231    1.4360 C.1       1 <0>         0.1891
     19 N4         -1.8187    4.3542    2.4989 N.1       1 <0>        -0.3356
     20 C14        -2.4021    4.0180   -0.8199 C.1       1 <0>         0.1958
     21 N5         -3.2528    4.3452   -1.4979 N.1       1 <0>        -0.3507
     22 C15        -0.0736    5.7438   -0.1323 C.2       1 <0>        -0.1794
     23 C16         0.0181    6.7786   -1.0030 C.2       1 <0>        -0.1215
     24 C17        -0.0764    8.0707   -0.5209 C.2       1 <0>        -0.1623
     25 C18        -0.2472    8.2649    0.8096 C.2       1 <0>        -0.1624
     26 S1         -0.2873    6.5897    1.4253 S.3       1 <0>         0.0521
     27 H3          6.1986    4.5402   -2.4796 H         1 <0>         0.0596
     28 H4          4.6465    3.9695   -3.1811 H         1 <0>         0.0653
     29 H5          5.5724    2.9080   -2.0663 H         1 <0>         0.0560
     30 H6          5.1801    4.5176   -0.2080 H         1 <0>         0.0353
     31 H7          4.2543    5.5791   -1.3227 H         1 <0>         0.0770
     32 H8          4.3702    1.9286   -1.0838 H         1 <0>         0.0934
     33 H9          4.1309    2.4551    0.6168 H         1 <0>         0.0519
     34 H10         2.3960    0.5181   -0.5249 H         1 <0>         0.1206
     35 H11         2.9800    4.4994    1.0906 H         1 <0>         0.0444
     36 H12         2.1970    5.4198   -0.2384 H         1 <0>         0.0923
     37 H13        -2.3135    0.2739   -0.0332 H         1 <0>         0.4372
     38 H14        -3.3270    1.8867    0.0066 H         1 <0>         0.4259
     39 H15         0.1599    6.5963   -2.0580 H         1 <0>         0.1395
     40 H16        -0.0104    8.9129   -1.1938 H         1 <0>         0.1377
     41 H17        -0.3364    9.1925    1.3556 H         1 <0>         0.1870
@<TRIPOS>BOND
     1    1    2 1
     2    1   27 1
     3    1   28 1
     4    1   29 1
     5    2    3 1
     6    2   30 1
     7    2   31 1
     8    3    9 1
     9    3    4 1
    10    4    5 1
    11    4   32 1
    12    4   33 1
    13    5    6 2
    14    5   34 1
    15    6   14 1
    16    6    7 1
    17    7    8 1
    18    7    9 1
    19    7   10 1
    20    9   35 1
    21    9   36 1
    22   10   11 1
    23   10   12 1
    24   10   22 1
    25   12   13 1
    26   12   18 1
    27   12   20 1
    28   13   14 2
    29   13   17 1
    30   14   15 1
    31   15   16 3
    32   17   37 1
    33   17   38 1
    34   18   19 3
    35   20   21 3
    36   22   26 1
    37   22   23 2
    38   23   24 1
    39   23   39 1
    40   24   25 2
    41   24   40 1
    42   25   26 1
    43   25   41 1
@<TRIPOS>MOLECULE
ZINC40330323
   40    42     0     0     0
SMALL
USER_CHARGES

@<TRIPOS>ATOM
      1 C1          7.0611   -3.0133    2.4105 C.ar      1 <0>        -0.1349
      2 C2          6.6230   -3.5448    1.2132 C.ar      1 <0>        -0.0743
      3 C3          5.6699   -2.8762    0.4656 C.ar      1 <0>        -0.0074
      4 C4          5.1531   -1.6734    0.9146 C.ar      1 <0>        -0.6211
      5 C5          5.5877   -1.1372    2.1106 C.ar      1 <0>        -0.0916
      6 C6          6.5439   -1.8067    2.8638 C.ar      1 <0>         0.2079
      7 N1          6.9848   -1.2669    4.0749 N.pl3     1 <0>        -0.8699
      8 S1          3.9399   -0.8251   -0.0410 S.o2      1 <0>         2.6908
      9 O1          2.9640   -1.7907   -0.4081 O.2       1 <0>        -0.9393
     10 O2          3.6104    0.3561    0.6769 O.2       1 <0>        -0.9478
     11 N2          4.6740   -0.3376   -1.4431 N.pl3     1 <0>        -0.9919
     12 C7          4.4296   -1.0334   -2.7192 C.3       1 <0>         0.0836
     13 C8          5.7767   -1.3630   -3.3696 C.3       1 <0>         0.0456
     14 O3          6.5912   -0.1867   -3.4227 O.3       1 <0>        -0.3688
     15 C9          6.8962    0.3528   -2.1388 C.3       1 <0>         0.0819
     16 H1          7.3691   -0.4159   -1.5277 H         1 <0>         0.0616
     17 C10         5.5904    0.8095   -1.4671 C.3       1 <0>         0.1300
     18 H2          5.1448    1.6207   -2.0429 H         1 <0>         0.0939
     19 C11         5.9011    1.2886   -0.0507 C.3       1 <0>        -0.1854
     20 C12         6.8575    2.4828   -0.1303 C.3       1 <0>        -0.1096
     21 C13         8.1491    2.0716   -0.8374 C.3       1 <0>        -0.1204
     22 C14         7.8294    1.5565   -2.2476 C.3       1 <0>        -0.1112
     23 Cl1         5.1217   -3.5471   -1.0388 Cl        1 <0>        -0.0511
     24 H3          7.8018   -3.5378    2.9959 H         1 <0>         0.1395
     25 H4          7.0251   -4.4829    0.8601 H         1 <0>         0.1436
     26 H5          5.1846   -0.1982    2.4602 H         1 <0>         0.1508
     27 H6          7.6528   -1.7350    4.5999 H         1 <0>         0.4040
     28 H7          6.6230   -0.4242    4.3906 H         1 <0>         0.4046
     29 H8          3.8789   -1.9554   -2.5327 H         1 <0>         0.1051
     30 H9          3.8522   -0.3887   -3.3818 H         1 <0>         0.0856
     31 H10         6.2843   -2.1290   -2.7832 H         1 <0>         0.0602
     32 H11         5.6096   -1.7339   -4.3808 H         1 <0>         0.1078
     33 H12         4.9779    1.5924    0.4427 H         1 <0>         0.1247
     34 H13         6.3701    0.4821    0.5129 H         1 <0>         0.0715
     35 H14         6.3819    3.2907   -0.6864 H         1 <0>         0.0709
     36 H15         7.0905    2.8274    0.8772 H         1 <0>         0.0725
     37 H16         8.8138    2.9327   -0.9062 H         1 <0>         0.0741
     38 H17         8.6391    1.2831   -0.2661 H         1 <0>         0.0634
     39 H18         8.7520    1.2593   -2.7460 H         1 <0>         0.0757
     40 H19         7.3416    2.3461   -2.8193 H         1 <0>         0.0756
@<TRIPOS>BOND
     1    1    6 ar
     2    1    2 ar
     3    1   24 1
     4    2    3 ar
     5    2   25 1
     6    3    4 ar
     7    3   23 1
     8    4    5 ar
     9    4    8 1
    10    5    6 ar
    11    5   26 1
    12    6    7 1
    13    7   27 1
    14    7   28 1
    15    8    9 2
    16    8   10 2
    17    8   11 1
    18   11   17 1
    19   11   12 1
    20   12   13 1
    21   12   29 1
    22   12   30 1
    23   13   14 1
    24   13   31 1
    25   13   32 1
    26   14   15 1
    27   15   16 1
    28   15   22 1
    29   15   17 1
    30   17   18 1
    31   17   19 1
    32   19   20 1
    33   19   33 1
    34   19   34 1
    35   20   21 1
    36   20   35 1
    37   20   36 1
    38   21   22 1
    39   21   37 1
    40   21   38 1
    41   22   39 1
    42   22   40 1
@<TRIPOS>MOLECULE
ZINC46775277
   47    50     0     0     0
SMALL
USER_CHARGES

@<TRIPOS>ATOM
      1 C1         -0.4391    1.7503    0.3081 C.3       1 <0>        -0.1495
      2 C2         -0.5246    0.2230    0.2731 C.3       1 <0>         0.0472
      3 H1         -1.5613   -0.0866    0.4050 H         1 <0>         0.0545
      4 C3         -0.0060   -0.2873   -1.0739 C.3       1 <0>         0.0689
      5 O1         -0.0179   -1.7174   -1.0728 O.3       1 <0>        -0.3840
      6 C4          0.7736   -2.2989   -0.0332 C.3       1 <0>         0.0640
      7 C5          0.2630   -1.8089    1.3244 C.3       1 <0>         0.0195
      8 N1          0.2971   -0.3395    1.3547 N.3       1 <0>        -0.5250
      9 C6         -0.1334    0.1711    2.6630 C.3       1 <0>         0.1213
     10 C7          0.8721   -0.2259    3.7129 C.ar      1 <0>         0.3878
     11 N2          0.7232   -1.3747    4.3481 N.ar      1 <0>        -0.5782
     12 C8          1.5711   -1.7801    5.2796 C.ar      1 <0>         0.4866
     13 C9          2.6812   -0.9541    5.6105 C.ar      1 <0>        -0.2389
     14 C10         3.7382   -1.1971    6.5990 C.2       1 <0>        -0.0778
     15 C11         4.6821   -0.2434    6.7228 C.2       1 <0>        -0.1428
     16 S1          4.2378    1.0085    5.5460 S.3       1 <0>         0.1107
     17 C12         2.7734    0.2528    4.8918 C.ar      1 <0>         0.1453
     18 N3          1.8843    0.5787    3.9733 N.ar      1 <0>        -0.4950
     19 C13         5.8521   -0.2249    7.6570 C.3       1 <0>        -0.0435
     20 C14         6.5927   -1.5656    7.5685 C.3       1 <0>        -0.1153
     21 C15         5.9826   -2.5203    8.5901 C.3       1 <0>        -0.1227
     22 C16         4.4899   -2.2349    8.7446 C.3       1 <0>        -0.1258
     23 C17         3.7600   -2.4775    7.4293 C.3       1 <0>        -0.0715
     24 N4          1.3806   -2.9897    5.9229 N.pl3     1 <0>        -0.8409
     25 H2          0.5978    2.0592    0.1761 H         1 <0>         0.0698
     26 H3         -1.0473    2.1667   -0.4949 H         1 <0>         0.0664
     27 H4         -0.8069    2.1129    1.2679 H         1 <0>         0.0626
     28 H5         -0.6477    0.0814   -1.8742 H         1 <0>         0.1007
     29 H6          1.0125    0.0681   -1.2302 H         1 <0>         0.0615
     30 H7          0.6959   -3.3851   -0.0809 H         1 <0>         0.0983
     31 H8          1.8148   -2.0020   -0.1592 H         1 <0>         0.0579
     32 H9         -0.7609   -2.1517    1.4734 H         1 <0>         0.0481
     33 H10         0.8988   -2.2042    2.1166 H         1 <0>         0.0874
     34 H11        -0.2068    1.2579    2.6227 H         1 <0>         0.1117
     35 H12        -1.1069   -0.2496    2.9148 H         1 <0>         0.0669
     36 H13         6.5280    0.5833    7.3776 H         1 <0>         0.0796
     37 H14         5.5008   -0.0699    8.6771 H         1 <0>         0.0948
     38 H15         6.4824   -1.9806    6.5666 H         1 <0>         0.0679
     39 H16         7.6494   -1.4167    7.7904 H         1 <0>         0.0743
     40 H17         6.1217   -3.5476    8.2534 H         1 <0>         0.0653
     41 H18         6.4781   -2.3861    9.5516 H         1 <0>         0.0673
     42 H19         4.0762   -2.8898    9.5115 H         1 <0>         0.0689
     43 H20         4.3517   -1.1967    9.0464 H         1 <0>         0.0750
     44 H21         2.7370   -2.7917    7.6362 H         1 <0>         0.0789
     45 H22         4.2714   -3.2617    6.8712 H         1 <0>         0.0797
     46 H23         2.1397   -3.4673    6.2925 H         1 <0>         0.4138
     47 H24         0.4880   -3.3604    6.0044 H         1 <0>         0.4083
@<TRIPOS>BOND
     1    1    2 1
     2    1   25 1
     3    1   26 1
     4    1   27 1
     5    2    3 1
     6    2    8 1
     7    2    4 1
     8    4    5 1
     9    4   28 1
    10    4   29 1
    11    5    6 1
    12    6    7 1
    13    6   30 1
    14    6   31 1
    15    7    8 1
    16    7   32 1
    17    7   33 1
    18    8    9 1
    19    9   10 1
    20    9   34 1
    21    9   35 1
    22   10   18 ar
    23   10   11 ar
    24   11   12 ar
    25   12   13 ar
    26   12   24 1
    27   13   17 ar
    28   13   14 1
    29   14   23 1
    30   14   15 2
    31   15   16 1
    32   15   19 1
    33   16   17 1
    34   17   18 ar
    35   19   20 1
    36   19   36 1
    37   19   37 1
    38   20   21 1
    39   20   38 1
    40   20   39 1
    41   21   22 1
    42   21   40 1
    43   21   41 1
    44   22   23 1
    45   22   42 1
    46   22   43 1
    47   23   44 1
    48   23   45 1
    49   24   46 1
    50   24   47 1
@<TRIPOS>MOLECULE
ZINC62320933
   49    51     0     0     0
SMALL
USER_CHARGES

@<TRIPOS>ATOM
      1 C1         -0.3660    1.6504    0.0267 C.3       1 <0>        -0.1354
      2 C2         -0.8739    0.3304    0.6101 C.3       1 <0>         0.1436
      3 H1         -0.8986   -0.4290   -0.1714 H         1 <0>         0.0699
      4 C3         -2.2827    0.5284    1.1784 C.3       1 <0>        -0.1305
      5 C4         -2.7293   -0.7547    1.8828 C.3       1 <0>        -0.1204
      6 C5         -1.7788   -1.0591    3.0430 C.3       1 <0>        -0.1416
      7 C6         -0.3643   -1.2751    2.4959 C.3       1 <0>         0.1228
      8 N1          0.0188   -0.1056    1.6926 N.am      1 <0>        -0.5919
      9 C7          1.1650    0.5566    1.9460 C.2       1 <0>         0.5912
     10 O1          1.4259    1.5763    1.3363 O.2       1 <0>        -0.5452
     11 C8          2.1005    0.0461    2.9601 C.2       1 <0>        -0.3429
     12 C9          2.7387    0.9112    3.8234 C.2       1 <0>         0.2383
     13 N2          3.5971    0.4821    4.7588 N.pl3     1 <0>        -0.4786
     14 C10         3.9079   -0.8498    4.9315 C.ar      1 <0>         0.2334
     15 C11         4.8058   -1.2436    5.9186 C.ar      1 <0>        -0.2404
     16 C12         5.1114   -2.5784    6.0854 C.ar      1 <0>        -0.0033
     17 C13         4.5349   -3.5449    5.2792 C.ar      1 <0>        -0.2436
     18 C14         3.6366   -3.1807    4.2875 C.ar      1 <0>         0.3071
     19 C15         3.3187   -1.8266    4.1100 C.ar      1 <0>        -0.2679
     20 C16         2.3661   -1.3976    3.0741 C.2       1 <0>         0.4404
     21 O2          1.8229   -2.2033    2.3381 O.2       1 <0>        -0.4980
     22 N3          3.0568   -4.1492    3.4766 N.pl3     1 <0>        -0.8498
     23 C17         4.2323    1.4701    5.6344 C.3       1 <0>         0.1046
     24 C18         5.1269    2.3898    4.8009 C.3       1 <0>        -0.1708
     25 C19         3.1539    2.3022    6.3312 C.3       1 <0>        -0.1704
     26 H2          0.6081    1.4922   -0.4361 H         1 <0>         0.0712
     27 H3         -1.0702    2.0112   -0.7231 H         1 <0>         0.0417
     28 H4         -0.2740    2.3884    0.8236 H         1 <0>         0.0706
     29 H5         -2.2744    1.3516    1.8928 H         1 <0>         0.0661
     30 H6         -2.9735    0.7572    0.3669 H         1 <0>         0.0743
     31 H7         -3.7411   -0.6249    2.2668 H         1 <0>         0.0643
     32 H8         -2.7136   -1.5825    1.1738 H         1 <0>         0.0642
     33 H9         -1.7753   -0.2209    3.7399 H         1 <0>         0.0624
     34 H10        -2.1109   -1.9601    3.5587 H         1 <0>         0.0727
     35 H11         0.3338   -1.3940    3.3245 H         1 <0>         0.0834
     36 H12        -0.3470   -2.1672    1.8699 H         1 <0>         0.0757
     37 H13         2.5406    1.9698    3.7429 H         1 <0>         0.1681
     38 H14         5.2651   -0.5023    6.5557 H         1 <0>         0.1330
     39 H15         5.8097   -2.8732    6.8547 H         1 <0>         0.1322
     40 H16         4.7857   -4.5855    5.4228 H         1 <0>         0.1294
     41 H17         3.1842   -5.0896    3.6774 H         1 <0>         0.3988
     42 H18         2.5249   -3.8848    2.7098 H         1 <0>         0.4166
     43 H19         4.8359    0.9572    6.3832 H         1 <0>         0.1177
     44 H20         4.5234    2.9028    4.0521 H         1 <0>         0.0674
     45 H21         5.5996    3.1249    5.4523 H         1 <0>         0.0827
     46 H22         5.8952    1.7971    4.3044 H         1 <0>         0.0681
     47 H23         2.5166    1.6469    6.9250 H         1 <0>         0.0683
     48 H24         3.6265    3.0372    6.9827 H         1 <0>         0.0841
     49 H25         2.5503    2.8151    5.5824 H         1 <0>         0.0663
@<TRIPOS>BOND
     1    1    2 1
     2    1   26 1
     3    1   27 1
     4    1   28 1
     5    2    3 1
     6    2    8 1
     7    2    4 1
     8    4    5 1
     9    4   29 1
    10    4   30 1
    11    5    6 1
    12    5   31 1
    13    5   32 1
    14    6    7 1
    15    6   33 1
    16    6   34 1
    17    7    8 1
    18    7   35 1
    19    7   36 1
    20    8    9 am
    21    9   10 2
    22    9   11 1
    23   11   20 1
    24   11   12 2
    25   12   13 1
    26   12   37 1
    27   13   14 1
    28   13   23 1
    29   14   19 ar
    30   14   15 ar
    31   15   16 ar
    32   15   38 1
    33   16   17 ar
    34   16   39 1
    35   17   18 ar
    36   17   40 1
    37   18   19 ar
    38   18   22 1
    39   19   20 1
    40   20   21 2
    41   22   41 1
    42   22   42 1
    43   23   24 1
    44   23   25 1
    45   23   43 1
    46   24   44 1
    47   24   45 1
    48   24   46 1
    49   25   47 1
    50   25   48 1
    51   25   49 1
@<TRIPOS>MOLECULE
ZINC05390907
   42    45     0     0     0
SMALL
USER_CHARGES
N-(2-nitrophenyl)-2-phenothiazin-10-yl-acetamide
@<TRIPOS>ATOM
      1 C1         -1.5643    9.6643   -2.4085 C.ar      1 <0>        -0.0444
      2 C2         -0.9057   10.7152   -1.7965 C.ar      1 <0>        -0.1319
      3 C3         -0.6961   10.7016   -0.4299 C.ar      1 <0>        -0.0371
      4 C4         -1.1438    9.6374    0.3284 C.ar      1 <0>        -0.0768
      5 C5         -1.8054    8.5808   -0.2830 C.ar      1 <0>         0.2199
      6 C6         -2.0101    8.5952   -1.6567 C.ar      1 <0>        -0.1276
      7 N1         -2.2597    7.5011    0.4823 N.am      1 <0>        -0.6682
      8 C7         -2.2301    6.2538   -0.0276 C.2       1 <0>         0.4903
      9 O1         -1.8855    6.0766   -1.1769 O.2       1 <0>        -0.4925
     10 C8         -2.6253    5.0795    0.8302 C.3       1 <0>         0.1112
     11 N2         -2.5092    3.8445    0.0508 N.pl3     1 <0>        -0.5597
     12 C9         -1.2952    3.1492    0.0560 C.ar      1 <0>         0.1883
     13 C10        -0.0936    3.8402    0.0623 C.ar      1 <0>        -0.1369
     14 C11         1.1036    3.1459    0.0650 C.ar      1 <0>        -0.0834
     15 C12         1.1115    1.7642    0.0613 C.ar      1 <0>        -0.1300
     16 C13        -0.0835    1.0633    0.0552 C.ar      1 <0>        -0.0610
     17 C14        -1.2813    1.7520    0.0474 C.ar      1 <0>        -0.1432
     18 S1         -2.8200    0.8866    0.0488 S.3       1 <0>         0.0093
     19 C15        -3.8914    2.0271   -0.7694 C.ar      1 <0>        -0.1427
     20 C16        -3.6156    3.3938   -0.6772 C.ar      1 <0>         0.1887
     21 C17        -4.4486    4.2992   -1.3156 C.ar      1 <0>        -0.1393
     22 C18        -5.5408    3.8462   -2.0347 C.ar      1 <0>        -0.0839
     23 C19        -5.8095    2.4936   -2.1219 C.ar      1 <0>        -0.1307
     24 C20        -4.9835    1.5797   -1.4879 C.ar      1 <0>        -0.0606
     25 N3         -0.9181    9.6232    1.7912 N.pl3     1 <0>         0.0379
     26 O2         -0.4277   10.5930    2.3412 O.2       1 <0>        -0.1457
     27 O3         -1.2229    8.6417    2.4449 O.3       1 <0>        -0.1812
     28 H1         -1.7262    9.6776   -3.4762 H         1 <0>         0.1482
     29 H2         -0.5541   11.5480   -2.3873 H         1 <0>         0.1509
     30 H3         -0.1814   11.5237    0.0451 H         1 <0>         0.1588
     31 H4         -2.5205    7.7727   -2.1358 H         1 <0>         0.1609
     32 H5         -2.5960    7.6502    1.3798 H         1 <0>         0.4260
     33 H6         -3.6557    5.2033    1.1634 H         1 <0>         0.1209
     34 H7         -1.9670    5.0251    1.6973 H         1 <0>         0.1241
     35 H8         -0.0917    4.9202    0.0655 H         1 <0>         0.1222
     36 H9          2.0379    3.6877    0.0697 H         1 <0>         0.1295
     37 H10         2.0502    1.2300    0.0627 H         1 <0>         0.1328
     38 H11        -0.0788   -0.0167    0.0521 H         1 <0>         0.1360
     39 H12        -4.2451    5.3579   -1.2521 H         1 <0>         0.1224
     40 H13        -6.1876    4.5546   -2.5309 H         1 <0>         0.1297
     41 H14        -6.6644    2.1486   -2.6844 H         1 <0>         0.1326
     42 H15        -5.1922    0.5222   -1.5552 H         1 <0>         0.1359
@<TRIPOS>BOND
     1    1    6 ar
     2    1    2 ar
     3    1   28 1
     4    2    3 ar
     5    2   29 1
     6    3    4 ar
     7    3   30 1
     8    4    5 ar
     9    4   25 1
    10    5    6 ar
    11    5    7 1
    12    6   31 1
    13    7    8 am
    14    7   32 1
    15    8    9 2
    16    8   10 1
    17   10   11 1
    18   10   33 1
    19   10   34 1
    20   11   20 1
    21   11   12 1
    22   12   17 ar
    23   12   13 ar
    24   13   14 ar
    25   13   35 1
    26   14   15 ar
    27   14   36 1
    28   15   16 ar
    29   15   37 1
    30   16   17 ar
    31   16   38 1
    32   17   18 1
    33   18   19 1
    34   19   24 ar
    35   19   20 ar
    36   20   21 ar
    37   21   22 ar
    38   21   39 1
    39   22   23 ar
    40   22   40 1
    41   23   24 ar
    42   23   41 1
    43   24   42 1
    44   25   26 2
    45   25   27 1
@<TRIPOS>MOLECULE
ZINC12507586
   48    52     0     0     0
SMALL
USER_CHARGES
7-methyl-N-(7-methyl-2-phenyl-imidazo[3,2-a]pyridin-3-yl)imidazo[1,2-a]pyridine-2-carboxamide
@<TRIPOS>ATOM
      1 C1          2.4704    1.2638    0.2837 C.3       1 <0>        -0.1155
      2 C2          1.1436    1.8180   -0.1676 C.2       1 <0>        -0.0604
      3 C3          1.0979    2.9505   -0.9989 C.2       1 <0>        -0.1279
      4 C4         -0.0871    3.4499   -1.4052 C.2       1 <0>         0.0566
      5 N1         -1.2596    2.8649   -1.0166 N.pl3     1 <0>        -0.3650
      6 C5         -2.5630    3.1619   -1.2781 C.2       1 <0>        -0.0072
      7 C6         -3.3248    2.2349   -0.6252 C.2       1 <0>        -0.0016
      8 N2         -2.4978    1.3917    0.0201 N.2       1 <0>        -0.4673
      9 C7         -1.2469    1.7541   -0.2102 C.2       1 <0>         0.2406
     10 C8         -0.0135    1.2245    0.2272 C.2       1 <0>        -0.0853
     11 C9         -4.7989    2.1696   -0.6268 C.2       1 <0>         0.5966
     12 O1         -5.4434    2.9917   -1.2500 O.2       1 <0>        -0.5185
     13 N3         -5.4312    1.1992    0.0623 N.am      1 <0>        -0.6157
     14 C10        -6.8218    1.2124    0.1690 C.2       1 <0>         0.1741
     15 C11        -7.6496    0.1134    0.2692 C.2       1 <0>         0.0933
     16 N4         -8.9169    0.5534    0.3551 N.2       1 <0>        -0.4654
     17 C12        -8.9249    1.8760    0.3048 C.2       1 <0>         0.2414
     18 N5         -7.6281    2.3178    0.1882 N.pl3     1 <0>        -0.3586
     19 C13        -7.3570    3.6567    0.1155 C.2       1 <0>         0.0817
     20 C14        -8.3550    4.5625    0.1567 C.2       1 <0>        -0.1485
     21 C15        -9.6912    4.1417    0.2755 C.2       1 <0>        -0.0603
     22 C16        -9.9773    2.8146    0.3489 C.2       1 <0>        -0.0924
     23 C17       -10.8027    5.1583    0.3206 C.3       1 <0>        -0.1124
     24 C18        -7.2172   -1.3040    0.2828 C.ar      1 <0>        -0.0114
     25 C19        -6.1278   -1.7109   -0.4868 C.ar      1 <0>        -0.1078
     26 C20        -5.7264   -3.0309   -0.4656 C.ar      1 <0>        -0.1163
     27 C21        -6.4096   -3.9523    0.3078 C.ar      1 <0>        -0.1133
     28 C22        -7.4944   -3.5556    1.0693 C.ar      1 <0>        -0.1191
     29 C23        -7.9017   -2.2372    1.0607 C.ar      1 <0>        -0.0851
     30 H1          2.8187    0.5234   -0.4364 H         1 <0>         0.0804
     31 H2          3.1974    2.0730    0.3533 H         1 <0>         0.0747
     32 H3          2.3547    0.7943    1.2606 H         1 <0>         0.0752
     33 H4          2.0164    3.4234   -1.3136 H         1 <0>         0.1567
     34 H5         -0.1099    4.3207   -2.0436 H         1 <0>         0.1702
     35 H6         -2.9257    3.9766   -1.8873 H         1 <0>         0.1978
     36 H7          0.0105    0.3537    0.8656 H         1 <0>         0.1556
     37 H8         -4.9191    0.4915    0.4841 H         1 <0>         0.4340
     38 H9         -6.3342    3.9913    0.0241 H         1 <0>         0.1746
     39 H10        -8.1268    5.6165    0.0983 H         1 <0>         0.1504
     40 H11       -11.0007    2.4820    0.4406 H         1 <0>         0.1531
     41 H12       -10.9927    5.4432    1.3555 H         1 <0>         0.0773
     42 H13       -10.5126    6.0395   -0.2515 H         1 <0>         0.0721
     43 H14       -11.7069    4.7274   -0.1093 H         1 <0>         0.0731
     44 H15        -5.5969   -0.9935   -1.0949 H         1 <0>         0.1201
     45 H16        -4.8800   -3.3464   -1.0577 H         1 <0>         0.1254
     46 H17        -6.0947   -4.9853    0.3175 H         1 <0>         0.1240
     47 H18        -8.0237   -4.2793    1.6714 H         1 <0>         0.1264
     48 H19        -8.7487   -1.9287    1.6556 H         1 <0>         0.1295
@<TRIPOS>BOND
     1    1    2 1
     2    1   30 1
     3    1   31 1
     4    1   32 1
     5    2   10 2
     6    2    3 1
     7    3    4 2
     8    3   33 1
     9    4    5 1
    10    4   34 1
    11    5    9 1
    12    5    6 1
    13    6    7 2
    14    6   35 1
    15    7    8 1
    16    7   11 1
    17    8    9 2
    18    9   10 1
    19   10   36 1
    20   11   12 2
    21   11   13 am
    22   13   14 1
    23   13   37 1
    24   14   18 1
    25   14   15 2
    26   15   16 1
    27   15   24 1
    28   16   17 2
    29   17   22 1
    30   17   18 1
    31   18   19 1
    32   19   20 2
    33   19   38 1
    34   20   21 1
    35   20   39 1
    36   21   22 2
    37   21   23 1
    38   22   40 1
    39   23   41 1
    40   23   42 1
    41   23   43 1
    42   24   29 ar
    43   24   25 ar
    44   25   26 ar
    45   25   44 1
    46   26   27 ar
    47   26   45 1
    48   27   28 ar
    49   27   46 1
    50   28   29 ar
    51   28   47 1
    52   29   48 1
@<TRIPOS>MOLECULE
ZINC33669346
   32    34     0     0     0
SMALL
USER_CHARGES
(Z)-2-(1H-benzimidazol-2-yl)-3-(4-bromo-3-nitro-phenyl)prop-2-enenitrile
@<TRIPOS>ATOM
      1 C1         -0.4380    2.1821    3.2201 C.ar      1 <0>        -0.0922
      2 C2         -0.3726    3.5683    3.2097 C.ar      1 <0>        -0.1232
      3 C3          0.6853    4.2117    2.6330 C.ar      1 <0>        -0.0615
      4 C4          1.7188    3.4703    2.0505 C.ar      1 <0>         0.0473
      5 C5          1.6551    2.0653    2.0663 C.ar      1 <0>         0.0510
      6 C6          0.5719    1.4301    2.6572 C.ar      1 <0>        -0.1131
      7 N1          2.7968    1.6196    1.4284 N.pl3     1 <0>        -0.6006
      8 H1          2.9770    0.5406    1.3136 H         1 <0>         0.4545
      9 C7          3.5081    2.7279    1.0503 C.2       1 <0>         0.3267
     10 N2          2.8679    3.8124    1.4195 N.2       1 <0>        -0.4700
     11 C8          4.7980    2.7055    0.3359 C.2       1 <0>         0.0013
     12 C9          5.3397    3.8672   -0.1301 C.2       1 <0>         0.0313
     13 C10         4.5485    5.1034   -0.1158 C.ar      1 <0>        -0.0651
     14 C11         3.2085    5.0864   -0.5229 C.ar      1 <0>         0.0337
     15 C12         2.4710    6.2500   -0.5006 C.ar      1 <0>        -0.1021
     16 C13         3.0549    7.4371   -0.0883 C.ar      1 <0>        -0.0221
     17 C14         4.3814    7.4635    0.3100 C.ar      1 <0>        -0.0374
     18 C15         5.1311    6.3071    0.2994 C.ar      1 <0>        -0.0162
     19 N3          4.9951    8.7371    0.7485 N.pl3     1 <0>         0.0250
     20 O1          6.1612    8.7621    1.0994 O.2       1 <0>        -0.1657
     21 O2          4.3341    9.7600    0.7585 O.3       1 <0>        -0.1312
     22 Br1         2.0356    9.0297   -0.0699 Br        1 <0>         0.0200
     23 C16         5.4818    1.4641    0.1314 C.1       1 <0>         0.2416
     24 N4          6.0242    0.4792   -0.0308 N.1       1 <0>        -0.3813
     25 H2         -1.2837    1.6886    3.6759 H         1 <0>         0.1331
     26 H3         -1.1683    4.1443    3.6587 H         1 <0>         0.1325
     27 H4          0.7239    5.2910    2.6270 H         1 <0>         0.1295
     28 H5          0.5177    0.3516    2.6722 H         1 <0>         0.1255
     29 H6          6.3695    3.8777   -0.5166 H         1 <0>         0.1686
     30 H7          2.7532    4.1629   -0.8488 H         1 <0>         0.1418
     31 H8          1.4363    6.2377   -0.8100 H         1 <0>         0.1547
     32 H9          6.1650    6.3292    0.6109 H         1 <0>         0.1634
@<TRIPOS>BOND
     1    1    6 ar
     2    1    2 ar
     3    1   25 1
     4    2    3 ar
     5    2   26 1
     6    3    4 ar
     7    3   27 1
     8    4   10 1
     9    4    5 ar
    10    5    6 ar
    11    5    7 1
    12    6   28 1
    13    7    8 1
    14    7    9 1
    15    9   10 2
    16    9   11 1
    17   11   12 2
    18   11   23 1
    19   12   13 1
    20   12   29 1
    21   13   18 ar
    22   13   14 ar
    23   14   15 ar
    24   14   30 1
    25   15   16 ar
    26   15   31 1
    27   16   17 ar
    28   16   22 1
    29   17   18 ar
    30   17   19 1
    31   18   32 1
    32   19   20 2
    33   19   21 1
    34   23   24 3
@<TRIPOS>MOLECULE
ZINC39883898
   40    42     0     0     0
SMALL
USER_CHARGES

@<TRIPOS>ATOM
      1 C1         -0.0388    1.4891    0.0486 C.3       1 <0>        -0.1162
      2 C2         -0.0125   -0.0176    0.0350 C.ar      1 <0>        -0.0631
      3 C3         -0.0135   -0.6933   -1.1767 C.ar      1 <0>        -0.1264
      4 C4          0.0097   -2.0602   -1.2072 C.ar      1 <0>        -0.0742
      5 C5          0.0350   -2.7777   -0.0122 C.ar      1 <0>        -0.1152
      6 C6          0.0641   -4.2054    0.3274 C.2       1 <0>        -0.1729
      7 C7          0.0801   -4.2708    1.6656 C.2       1 <0>         0.0300
      8 O1          0.0640   -3.0329    2.1901 O.3       1 <0>        -0.1870
      9 C8          0.0367   -2.0993    1.2180 C.ar      1 <0>         0.0573
     10 C9          0.0180   -0.7100    1.2266 C.ar      1 <0>        -0.0718
     11 C10         0.0250    0.0377    2.5350 C.3       1 <0>        -0.1156
     12 C11         0.0740   -5.3646   -0.6355 C.3       1 <0>        -0.0622
     13 C12         1.4900   -5.6468   -1.0674 C.2       1 <0>         0.5166
     14 O2          2.4014   -4.9729   -0.6358 O.2       1 <0>        -0.4931
     15 N1          1.7435   -6.6480   -1.9333 N.am      1 <0>        -0.6738
     16 C13         3.0450   -6.8508   -2.4071 C.ar      1 <0>         0.2143
     17 C14         4.1327   -6.6081   -1.5789 C.ar      1 <0>        -0.1131
     18 C15         5.4157   -6.8096   -2.0490 C.ar      1 <0>        -0.0269
     19 C16         5.6183   -7.2526   -3.3433 C.ar      1 <0>        -0.0574
     20 C17         4.5379   -7.4956   -4.1712 C.ar      1 <0>        -0.0249
     21 C18         3.2511   -7.3010   -3.7054 C.ar      1 <0>        -0.0733
     22 Cl1         1.8947   -7.6130   -4.7429 Cl        1 <0>        -0.0301
     23 N2          6.9948   -7.4669   -3.8435 N.pl3     1 <0>         0.0356
     24 O3          7.9405   -7.2545   -3.1208 O.2       1 <0>        -0.1506
     25 O4          7.1735   -7.8542   -4.9748 O.3       1 <0>        -0.1534
     26 H1          0.9823    1.8705    0.0360 H         1 <0>         0.0750
     27 H2         -0.5726    1.8511   -0.8301 H         1 <0>         0.0711
     28 H3         -0.5450    1.8356    0.9496 H         1 <0>         0.0722
     29 H4         -0.0331   -0.1363   -2.1018 H         1 <0>         0.1295
     30 H5          0.0081   -2.5817   -2.1529 H         1 <0>         0.1220
     31 H6          0.1027   -5.1853    2.2397 H         1 <0>         0.2072
     32 H7         -1.0008    0.1999    2.8662 H         1 <0>         0.0733
     33 H8          0.5607   -0.5455    3.2839 H         1 <0>         0.0682
     34 H9          0.5199    0.9996    2.4011 H         1 <0>         0.0742
     35 H10        -0.3393   -6.2467   -0.1465 H         1 <0>         0.1149
     36 H11        -0.5296   -5.1169   -1.5086 H         1 <0>         0.1137
     37 H12         1.0242   -7.2281   -2.2281 H         1 <0>         0.4207
     38 H13         3.9757   -6.2617   -0.5681 H         1 <0>         0.1720
     39 H14         6.2618   -6.6205   -1.4051 H         1 <0>         0.1649
     40 H15         4.6995   -7.8412   -5.1816 H         1 <0>         0.1685
@<TRIPOS>BOND
     1    1    2 1
     2    1   26 1
     3    1   27 1
     4    1   28 1
     5    2   10 ar
     6    2    3 ar
     7    3    4 ar
     8    3   29 1
     9    4    5 ar
    10    4   30 1
    11    5    9 ar
    12    5    6 1
    13    6    7 2
    14    6   12 1
    15    7    8 1
    16    7   31 1
    17    8    9 1
    18    9   10 ar
    19   10   11 1
    20   11   32 1
    21   11   33 1
    22   11   34 1
    23   12   13 1
    24   12   35 1
    25   12   36 1
    26   13   14 2
    27   13   15 am
    28   15   16 1
    29   15   37 1
    30   16   21 ar
    31   16   17 ar
    32   17   18 ar
    33   17   38 1
    34   18   19 ar
    35   18   39 1
    36   19   20 ar
    37   19   23 1
    38   20   21 ar
    39   20   40 1
    40   21   22 1
    41   23   24 2
    42   23   25 1
@<TRIPOS>MOLECULE
ZINC49980444
   42    44     0     0     0
SMALL
USER_CHARGES

@<TRIPOS>ATOM
      1 C1         -0.0906    1.3576   -0.6220 C.ar      1 <0>        -0.1222
      2 C2          1.0767    2.0652   -0.8417 C.ar      1 <0>        -0.1061
      3 C3          2.2808    1.3973   -0.9697 C.ar      1 <0>        -0.1420
      4 C4          2.3201    0.0159   -0.8779 C.ar      1 <0>         0.0979
      5 C5          1.1444   -0.6979   -0.6564 C.ar      1 <0>         0.1432
      6 C6         -0.0599   -0.0211   -0.5291 C.ar      1 <0>        -0.1104
      7 N1          1.1780   -2.0940   -0.5632 N.pl3     1 <0>        -0.6676
      8 C7          1.3717   -2.7524    0.7363 C.3       1 <0>         0.1313
      9 C8          0.2128   -3.7298    0.9682 C.3       1 <0>         0.1284
     10 N2          0.0544   -4.5636   -0.2316 N.pl3     1 <0>        -0.6864
     11 C9         -0.1393   -3.9052   -1.5312 C.3       1 <0>         0.1274
     12 C10         1.0141   -2.9279   -1.7622 C.3       1 <0>         0.1364
     13 C11         0.0880   -5.9568   -0.1386 C.ar      1 <0>         0.2814
     14 C12         1.2960   -6.6334   -0.2533 C.ar      1 <0>        -0.1251
     15 C13         1.3256   -8.0107   -0.1604 C.ar      1 <0>        -0.0159
     16 C14         0.1545   -8.7168    0.0467 C.ar      1 <0>        -0.0581
     17 C15        -1.0494   -8.0467    0.1609 C.ar      1 <0>        -0.0023
     18 C16        -1.0855   -6.6686    0.0746 C.ar      1 <0>        -0.1991
     19 C17        -2.3974   -5.9386    0.2054 C.3       1 <0>         0.5229
     20 F1         -3.4261   -6.8627    0.4175 F         1 <0>        -0.1741
     21 F2         -2.3335   -5.0552    1.2883 F         1 <0>        -0.1681
     22 F3         -2.6504   -5.2202   -0.9681 F         1 <0>        -0.1679
     23 N3          0.1902  -10.1931    0.1458 N.pl3     1 <0>         0.0328
     24 O1          1.2421  -10.7805    0.0458 O.2       1 <0>        -0.1475
     25 O2         -0.8327  -10.8117    0.3268 O.3       1 <0>        -0.1499
     26 O3          3.5037   -0.6423   -1.0040 O.3       1 <0>        -0.4908
     27 H1         -1.0280    1.8838   -0.5182 H         1 <0>         0.1257
     28 H2          1.0481    3.1424   -0.9140 H         1 <0>         0.1271
     29 H3          3.1908    1.9530   -1.1417 H         1 <0>         0.1284
     30 H4         -0.9732   -0.5714   -0.3570 H         1 <0>         0.1246
     31 H5          2.3153   -3.2981    0.7329 H         1 <0>         0.0546
     32 H6          1.3825   -2.0032    1.5280 H         1 <0>         0.0764
     33 H7          0.4346   -4.3631    1.8271 H         1 <0>         0.0770
     34 H8         -0.7057   -3.1716    1.1496 H         1 <0>         0.0650
     35 H9         -0.1500   -4.6543   -2.3228 H         1 <0>         0.0775
     36 H10        -1.0829   -3.3595   -1.5277 H         1 <0>         0.0643
     37 H11         0.7886   -2.2946   -2.6202 H         1 <0>         0.0771
     38 H12         1.9316   -3.4864   -1.9477 H         1 <0>         0.0552
     39 H13         2.2108   -6.0826   -0.4154 H         1 <0>         0.1597
     40 H14         2.2643   -8.5373   -0.2498 H         1 <0>         0.1647
     41 H15        -1.9622   -8.6011    0.3218 H         1 <0>         0.1685
     42 H16         3.9731   -0.7711   -0.1685 H         1 <0>         0.3859
@<TRIPOS>BOND
     1    1    6 ar
     2    1    2 ar
     3    1   27 1
     4    2    3 ar
     5    2   28 1
     6    3    4 ar
     7    3   29 1
     8    4    5 ar
     9    4   26 1
    10    5    6 ar
    11    5    7 1
    12    6   30 1
    13    7   12 1
    14    7    8 1
    15    8    9 1
    16    8   31 1
    17    8   32 1
    18    9   10 1
    19    9   33 1
    20    9   34 1
    21   10   11 1
    22   10   13 1
    23   11   12 1
    24   11   35 1
    25   11   36 1
    26   12   37 1
    27   12   38 1
    28   13   18 ar
    29   13   14 ar
    30   14   15 ar
    31   14   39 1
    32   15   16 ar
    33   15   40 1
    34   16   17 ar
    35   16   23 1
    36   17   18 ar
    37   17   41 1
    38   18   19 1
    39   19   20 1
    40   19   21 1
    41   19   22 1
    42   23   24 2
    43   23   25 1
    44   26   42 1
@<TRIPOS>MOLECULE
ZINC04320905
   42    45     0     0     0
SMALL
USER_CHARGES
chloro-(4-methoxy-3-nitro-phenyl)-BLAH
@<TRIPOS>ATOM
      1 C1          3.6074    5.9994   -2.0946 C.3       1 <0>         0.0190
      2 O1          3.2439    6.1569   -0.7216 O.3       1 <0>        -0.2827
      3 C2          2.2060    5.4060   -0.2680 C.ar      1 <0>         0.1930
      4 C3          1.5507    4.5353   -1.1269 C.ar      1 <0>        -0.2111
      5 C4          0.4958    3.7735   -0.6636 C.ar      1 <0>        -0.0244
      6 C5          0.0926    3.8781    0.6550 C.ar      1 <0>        -0.0995
      7 C6          0.7402    4.7490    1.5113 C.ar      1 <0>        -0.0074
      8 C7          1.7997    5.5090    1.0542 C.ar      1 <0>        -0.0801
      9 N1          2.4965    6.4368    1.9730 N.pl3     1 <0>         0.0377
     10 O2          2.1392    6.5268    3.1340 O.2       1 <0>        -0.1809
     11 O3          3.4272    7.1102    1.5682 O.3       1 <0>        -0.1401
     12 C8         -1.0586    3.0457    1.1579 C.3       1 <0>         0.1426
     13 H1         -1.6744    3.6446    1.8288 H         1 <0>         0.1129
     14 C9         -0.5176    1.8287    1.9116 C.3       1 <0>        -0.1206
     15 H2         -1.3012    1.2018    2.3371 H         1 <0>         0.1059
     16 C10         0.4969    2.3383    2.9735 C.3       1 <0>        -0.0975
     17 C11         1.7786    2.5169    2.1841 C.2       1 <0>        -0.1572
     18 C12         1.7470    1.8011    1.0881 C.2       1 <0>        -0.1593
     19 C13         0.4395    1.0500    0.9840 C.3       1 <0>        -0.0184
     20 H3          0.5655    0.0312    1.3503 H         1 <0>         0.0998
     21 C14        -0.0450    1.0269   -0.4357 C.ar      1 <0>        -0.1032
     22 C15         0.6369    0.2268   -1.3437 C.ar      1 <0>        -0.0936
     23 C16         0.2412    0.1657   -2.6636 C.ar      1 <0>        -0.1191
     24 C17        -0.8446    0.9057   -3.0959 C.ar      1 <0>        -0.0959
     25 C18        -1.5483    1.7335   -2.1841 C.ar      1 <0>        -0.0557
     26 C19        -1.1433    1.7838   -0.8497 C.ar      1 <0>         0.1189
     27 N2         -1.8672    2.5955    0.0242 N.pl3     1 <0>        -0.6237
     28 Cl1        -2.9153    2.6669   -2.7072 Cl        1 <0>        -0.0456
     29 H4          3.8930    4.9636   -2.2783 H         1 <0>         0.0614
     30 H5          2.7589    6.2600   -2.7273 H         1 <0>         0.0624
     31 H6          4.4475    6.6544   -2.3256 H         1 <0>         0.1126
     32 H7          1.8650    4.4535   -2.1570 H         1 <0>         0.1475
     33 H8         -0.0148    3.0959   -1.3319 H         1 <0>         0.1602
     34 H9          0.4204    4.8323    2.5395 H         1 <0>         0.1583
     35 H10         0.6319    1.5975    3.7616 H         1 <0>         0.0859
     36 H11         0.1701    3.2892    3.3944 H         1 <0>         0.0796
     37 H12         2.6029    3.1470    2.4837 H         1 <0>         0.1227
     38 H13         2.5437    1.7537    0.3605 H         1 <0>         0.1239
     39 H14         1.4857   -0.3532   -1.0128 H         1 <0>         0.1291
     40 H15         0.7792   -0.4605   -3.3599 H         1 <0>         0.1349
     41 H16        -1.1551    0.8595   -4.1293 H         1 <0>         0.1373
     42 H17        -2.7050    2.1301    0.3398 H         1 <0>         0.3707
@<TRIPOS>BOND
     1    1    2 1
     2    1   29 1
     3    1   30 1
     4    1   31 1
     5    2    3 1
     6    3    8 ar
     7    3    4 ar
     8    4    5 ar
     9    4   32 1
    10    5    6 ar
    11    5   33 1
    12    6    7 ar
    13    6   12 1
    14    7    8 ar
    15    7   34 1
    16    8    9 1
    17    9   10 2
    18    9   11 1
    19   12   13 1
    20   12   27 1
    21   12   14 1
    22   14   15 1
    23   14   19 1
    24   14   16 1
    25   16   17 1
    26   16   35 1
    27   16   36 1
    28   17   18 2
    29   17   37 1
    30   18   19 1
    31   18   38 1
    32   19   20 1
    33   19   21 1
    34   21   26 ar
    35   21   22 ar
    36   22   23 ar
    37   22   39 1
    38   23   24 ar
    39   23   40 1
    40   24   25 ar
    41   24   41 1
    42   25   26 ar
    43   25   28 1
    44   26   27 1
    45   27   42 1
@<TRIPOS>MOLECULE
ZINC02321099
   40    43     0     0     0
SMALL
USER_CHARGES
4-chloro-N-(2-methoxydibenzofuran-3-yl)-benzenesulfonamide
@<TRIPOS>ATOM
      1 C1          2.0353    6.1359    0.3092 C.3       1 <0>         0.0243
      2 O1          0.7025    5.6288    0.2161 O.3       1 <0>        -0.3089
      3 C2          0.5491    4.2785    0.2852 C.ar      1 <0>         0.1014
      4 C3          1.6544    3.4645    0.4387 C.ar      1 <0>        -0.1333
      5 C4          1.4920    2.0835    0.5084 C.ar      1 <0>        -0.0918
      6 C5          2.4241    0.9507    0.6657 C.ar      1 <0>        -0.1250
      7 C6          3.8046    0.8465    0.8006 C.ar      1 <0>        -0.0607
      8 C7          4.3871   -0.3966    0.9325 C.ar      1 <0>        -0.1375
      9 C8          3.6003   -1.5375    0.9297 C.ar      1 <0>        -0.0794
     10 C9          2.2308   -1.4455    0.7957 C.ar      1 <0>        -0.1141
     11 C10         1.6258   -0.2016    0.6622 C.ar      1 <0>         0.0877
     12 O2          0.3349    0.1709    0.5182 O.3       1 <0>        -0.1929
     13 C11         0.2138    1.5144    0.4238 C.ar      1 <0>         0.0837
     14 C12        -0.8913    2.3426    0.2743 C.ar      1 <0>        -0.1396
     15 C13        -0.7254    3.7153    0.2006 C.ar      1 <0>         0.1663
     16 N1         -1.8422    4.5430    0.0448 N.pl3     1 <0>        -1.0396
     17 S1         -3.2738    4.1488    0.7779 S.o2      1 <0>         2.6908
     18 O3         -4.1605    5.2352    0.5481 O.2       1 <0>        -0.9398
     19 O4         -3.5800    2.8187    0.3822 O.2       1 <0>        -0.9408
     20 C14        -2.9746    4.1015    2.5137 C.ar      1 <0>        -0.6770
     21 C15        -2.5836    2.9200    3.1155 C.ar      1 <0>        -0.0028
     22 C16        -2.3433    2.8837    4.4761 C.ar      1 <0>        -0.1304
     23 C17        -2.5049    4.0274    5.2376 C.ar      1 <0>         0.0217
     24 C18        -2.9017    5.2082    4.6356 C.ar      1 <0>        -0.1315
     25 C19        -3.1363    5.2447    3.2740 C.ar      1 <0>        -0.0008
     26 Cl1        -2.2096    3.9810    6.9476 Cl        1 <0>        -0.0501
     27 H1          2.4708    5.8401    1.2636 H         1 <0>         0.0583
     28 H2          2.6358    5.7308   -0.5053 H         1 <0>         0.0589
     29 H3          2.0158    7.2235    0.2401 H         1 <0>         0.1056
     30 H4          2.6414    3.8979    0.5047 H         1 <0>         0.1431
     31 H5          4.4178    1.7356    0.8027 H         1 <0>         0.1293
     32 H6          5.4587   -0.4812    1.0377 H         1 <0>         0.1344
     33 H7          4.0639   -2.5074    1.0331 H         1 <0>         0.1399
     34 H8          1.6277   -2.3414    0.7949 H         1 <0>         0.1376
     35 H9         -1.8811    1.9150    0.2125 H         1 <0>         0.1813
     36 H10        -1.7781    5.3479   -0.4927 H         1 <0>         0.4361
     37 H11        -2.4617    2.0262    2.5216 H         1 <0>         0.1500
     38 H12        -2.0336    1.9616    4.9454 H         1 <0>         0.1463
     39 H13        -3.0277    6.1014    5.2295 H         1 <0>         0.1471
     40 H14        -3.4457    6.1665    2.8040 H         1 <0>         0.1525
@<TRIPOS>BOND
     1    1    2 1
     2    1   27 1
     3    1   28 1
     4    1   29 1
     5    2    3 1
     6    3   15 ar
     7    3    4 ar
     8    4    5 ar
     9    4   30 1
    10    5   13 ar
    11    5    6 1
    12    6   11 ar
    13    6    7 ar
    14    7    8 ar
    15    7   31 1
    16    8    9 ar
    17    8   32 1
    18    9   10 ar
    19    9   33 1
    20   10   11 ar
    21   10   34 1
    22   11   12 1
    23   12   13 1
    24   13   14 ar
    25   14   15 ar
    26   14   35 1
    27   15   16 1
    28   16   17 1
    29   16   36 1
    30   17   18 2
    31   17   19 2
    32   17   20 1
    33   20   25 ar
    34   20   21 ar
    35   21   22 ar
    36   21   37 1
    37   22   23 ar
    38   22   38 1
    39   23   24 ar
    40   23   26 1
    41   24   25 ar
    42   24   39 1
    43   25   40 1
@<TRIPOS>MOLECULE
ZINC21166343
   57    60     0     0     0
SMALL
USER_CHARGES
(7R)-7-ethyl-1,7-dimethyl-N-[(1R,2S)-2-methylcyclohexyl]-9-oxo-8H-pyrano[5,6-e]benzofuran-2-carboxamide
@<TRIPOS>ATOM
      1 C1          4.5453    4.9084    2.4089 C.3       1 <0>        -0.1581
      2 C2          3.2229    5.5473    2.8378 C.3       1 <0>        -0.1099
      3 C3          2.0968    5.0465    1.9312 C.3       1 <0>         0.1252
      4 C4          0.7922    5.7769    2.2826 C.3       1 <0>        -0.1959
      5 C5         -0.2919    5.2137    1.3812 C.2       1 <0>         0.3983
      6 O1         -1.1389    5.9249    0.8817 O.2       1 <0>        -0.4277
      7 C6         -0.2632    3.7647    1.1441 C.ar      1 <0>        -0.2051
      8 C7          0.8666    3.0326    1.5291 C.ar      1 <0>         0.1773
      9 C8          0.9026    1.6588    1.2993 C.ar      1 <0>        -0.1232
     10 C9         -0.1575    1.0152    0.7017 C.ar      1 <0>        -0.0374
     11 C10        -1.2909    1.7232    0.3095 C.ar      1 <0>         0.0258
     12 C11        -1.3541    3.1079    0.5348 C.ar      1 <0>        -0.0579
     13 C12        -2.6103    3.5359    0.0447 C.2       1 <0>        -0.0737
     14 C13        -3.2423    2.4345   -0.4385 C.2       1 <0>        -0.0329
     15 O2         -2.4495    1.3551   -0.2749 O.3       1 <0>        -0.1735
     16 C14        -4.5823    2.4211   -1.0463 C.2       1 <0>         0.6036
     17 O3         -5.2150    3.4551   -1.1466 O.2       1 <0>        -0.5113
     18 N1         -5.1086    1.2632   -1.4919 N.am      1 <0>        -0.7197
     19 C15        -6.4427    1.2498   -2.0970 C.3       1 <0>         0.1531
     20 H1         -6.5574    2.1939   -2.6498 H         1 <0>         0.0917
     21 C16        -7.5005    1.1373   -0.9973 C.3       1 <0>        -0.1321
     22 C17        -7.2838   -0.1577   -0.2118 C.3       1 <0>        -0.1193
     23 C18        -7.4026   -1.3541   -1.1581 C.3       1 <0>        -0.1221
     24 C19        -6.3449   -1.2415   -2.2578 C.3       1 <0>        -0.1156
     25 C20        -6.5616    0.0534   -3.0433 C.3       1 <0>        -0.0973
     26 H2         -7.5633    0.0433   -3.4977 H         1 <0>         0.0878
     27 C21        -5.5039    0.1659   -4.1430 C.3       1 <0>        -0.1506
     28 C22        -3.1451    4.9448    0.0560 C.3       1 <0>        -0.0989
     29 O4          1.9180    3.6437    2.1240 O.3       1 <0>        -0.2950
     30 C23         2.4571    5.3193    0.4695 C.3       1 <0>        -0.1881
     31 H3          5.3549    5.2685    3.0607 H         1 <0>         0.0606
     32 H4          4.7642    5.1832    1.3665 H         1 <0>         0.0603
     33 H5          4.4675    3.8142    2.4911 H         1 <0>         0.0643
     34 H6          3.0040    5.2725    3.8802 H         1 <0>         0.0794
     35 H7          3.3006    6.6415    2.7556 H         1 <0>         0.0891
     36 H8          0.5470    5.6010    3.3404 H         1 <0>         0.1149
     37 H9          0.9181    6.8559    2.1100 H         1 <0>         0.1142
     38 H10         1.7731    1.0916    1.5941 H         1 <0>         0.1550
     39 H11        -0.1079   -0.0501    0.5311 H         1 <0>         0.1489
     40 H12        -4.5364    0.3281   -1.4012 H         1 <0>         0.4236
     41 H13        -7.4151    1.9975   -0.3170 H         1 <0>         0.0692
     42 H14        -8.5022    1.1273   -1.4517 H         1 <0>         0.0745
     43 H15        -6.2821   -0.1476    0.2426 H         1 <0>         0.0613
     44 H16        -8.0443   -0.2386    0.5789 H         1 <0>         0.0631
     45 H17        -7.2467   -2.2851   -0.5934 H         1 <0>         0.0637
     46 H18        -8.4043   -1.3642   -1.6125 H         1 <0>         0.0647
     47 H19        -5.3432   -1.2314   -1.8034 H         1 <0>         0.0596
     48 H20        -6.4303   -2.1017   -2.9381 H         1 <0>         0.0691
     49 H21        -5.5894   -0.6942   -4.8233 H         1 <0>         0.0590
     50 H22        -4.5022    0.1759   -3.6886 H         1 <0>         0.0557
     51 H23        -5.6597    1.0970   -4.7077 H         1 <0>         0.0573
     52 H24        -4.1487    4.9597   -0.3942 H         1 <0>         0.0909
     53 H25        -2.4739    5.5964   -0.5227 H         1 <0>         0.0885
     54 H26        -3.2031    5.3067    1.0932 H         1 <0>         0.0712
     55 H27         1.6468    4.9588   -0.1813 H         1 <0>         0.0610
     56 H28         3.3905    4.7944    0.2178 H         1 <0>         0.0819
     57 H29         2.5930    6.4007    0.3211 H         1 <0>         0.0813
@<TRIPOS>BOND
     1    1    2 1
     2    1   31 1
     3    1   32 1
     4    1   33 1
     5    2    3 1
     6    2   34 1
     7    2   35 1
     8    3   29 1
     9    3    4 1
    10    3   30 1
    11    4    5 1
    12    4   36 1
    13    4   37 1
    14    5    6 2
    15    5    7 1
    16    7   12 ar
    17    7    8 ar
    18    8    9 ar
    19    8   29 1
    20    9   10 ar
    21    9   38 1
    22   10   11 ar
    23   10   39 1
    24   11   15 1
    25   11   12 ar
    26   12   13 1
    27   13   14 2
    28   13   28 1
    29   14   15 1
    30   14   16 1
    31   16   17 2
    32   16   18 am
    33   18   19 1
    34   18   40 1
    35   19   20 1
    36   19   25 1
    37   19   21 1
    38   21   22 1
    39   21   41 1
    40   21   42 1
    41   22   23 1
    42   22   43 1
    43   22   44 1
    44   23   24 1
    45   23   45 1
    46   23   46 1
    47   24   25 1
    48   24   47 1
    49   24   48 1
    50   25   26 1
    51   25   27 1
    52   27   49 1
    53   27   50 1
    54   27   51 1
    55   28   52 1
    56   28   53 1
    57   28   54 1
    58   30   55 1
    59   30   56 1
    60   30   57 1
@<TRIPOS>MOLECULE
ZINC46078213
   45    48     0     0     0
SMALL
USER_CHARGES

@<TRIPOS>ATOM
      1 C1          5.6380    1.2880    2.4971 C.ar      1 <0>        -0.1654
      2 C2          5.1011    1.9033    1.3811 C.ar      1 <0>        -0.0765
      3 C3          4.4456    1.1526    0.4250 C.ar      1 <0>        -0.1856
      4 C4          4.3259   -0.2221    0.5854 C.ar      1 <0>         0.1937
      5 C5          4.8664   -0.8369    1.7076 C.ar      1 <0>        -0.2053
      6 C6          5.5206   -0.0802    2.6599 C.ar      1 <0>        -0.0737
      7 N1          3.6632   -0.9843   -0.3794 N.pl3     1 <0>        -0.7363
      8 C7          3.6630   -2.4462   -0.2847 C.3       1 <0>         0.2682
      9 C8          2.8970   -3.0340   -1.4716 C.3       1 <0>        -0.1272
     10 C9          3.5728   -2.6075   -2.7764 C.3       1 <0>        -0.1132
     11 C10         5.0143   -3.1201   -2.7953 C.3       1 <0>        -0.1236
     12 C11         5.7802   -2.5323   -1.6084 C.3       1 <0>        -0.1138
     13 C12         5.1044   -2.9588   -0.3037 C.3       1 <0>        -0.1261
     14 C13         2.9973   -2.8662    1.0004 C.2       1 <0>         0.2506
     15 N2          3.5672   -3.4815    2.0034 N.2       1 <0>        -0.3191
     16 N3          2.7198   -3.6938    2.9448 N.2       1 <0>        -0.0289
     17 N4          1.5615   -3.2341    2.6133 N.2       1 <0>        -0.0723
     18 N5          1.7027   -2.6718    1.3324 N.pl3     1 <0>        -0.3224
     19 C14         0.7109   -2.0452    0.5631 C.ar      1 <0>         0.1265
     20 C15         0.9627   -0.8139   -0.0264 C.ar      1 <0>        -0.1100
     21 C16        -0.0151   -0.1992   -0.7836 C.ar      1 <0>        -0.0954
     22 C17        -1.2453   -0.8095   -0.9546 C.ar      1 <0>        -0.0193
     23 C18        -1.4986   -2.0370   -0.3679 C.ar      1 <0>        -0.0942
     24 C19        -0.5219   -2.6582    0.3855 C.ar      1 <0>        -0.0807
     25 Cl1        -2.4728   -0.0339   -1.9061 Cl        1 <0>        -0.0488
     26 H1          6.1540    1.8768    3.2410 H         1 <0>         0.1196
     27 H2          5.1941    2.9721    1.2572 H         1 <0>         0.1227
     28 H3          4.0262    1.6337   -0.4462 H         1 <0>         0.1210
     29 H4          4.7749   -1.9054    1.8355 H         1 <0>         0.1464
     30 H5          5.9410   -0.5576    3.5327 H         1 <0>         0.1216
     31 H6          3.2032   -0.5456   -1.1121 H         1 <0>         0.4070
     32 H7          2.8968   -4.1217   -1.4012 H         1 <0>         0.0878
     33 H8          1.8701   -2.6688   -1.4581 H         1 <0>         0.0747
     34 H9          3.0272   -3.0263   -3.6219 H         1 <0>         0.0744
     35 H10         3.5730   -1.5198   -2.8468 H         1 <0>         0.0666
     36 H11         5.0141   -4.2078   -2.7249 H         1 <0>         0.0659
     37 H12         5.4957   -2.8163   -3.7248 H         1 <0>         0.0685
     38 H13         6.8072   -2.8975   -1.6219 H         1 <0>         0.0711
     39 H14         5.7804   -1.4446   -1.6789 H         1 <0>         0.0695
     40 H15         5.6501   -2.5400    0.5419 H         1 <0>         0.0918
     41 H16         5.1042   -4.0465   -0.2332 H         1 <0>         0.0829
     42 H17         1.9224   -0.3369    0.1074 H         1 <0>         0.1625
     43 H18         0.1804    0.7588   -1.2425 H         1 <0>         0.1495
     44 H19        -2.4595   -2.5113   -0.5024 H         1 <0>         0.1502
     45 H20        -0.7186   -3.6181    0.8398 H         1 <0>         0.1455
@<TRIPOS>BOND
     1    1    6 ar
     2    1    2 ar
     3    1   26 1
     4    2    3 ar
     5    2   27 1
     6    3    4 ar
     7    3   28 1
     8    4    5 ar
     9    4    7 1
    10    5    6 ar
    11    5   29 1
    12    6   30 1
    13    7    8 1
    14    7   31 1
    15    8   13 1
    16    8    9 1
    17    8   14 1
    18    9   10 1
    19    9   32 1
    20    9   33 1
    21   10   11 1
    22   10   34 1
    23   10   35 1
    24   11   12 1
    25   11   36 1
    26   11   37 1
    27   12   13 1
    28   12   38 1
    29   12   39 1
    30   13   40 1
    31   13   41 1
    32   14   18 1
    33   14   15 2
    34   15   16 1
    35   16   17 2
    36   17   18 1
    37   18   19 1
    38   19   24 ar
    39   19   20 ar
    40   20   21 ar
    41   20   42 1
    42   21   22 ar
    43   21   43 1
    44   22   23 ar
    45   22   25 1
    46   23   24 ar
    47   23   44 1
    48   24   45 1
@<TRIPOS>MOLECULE
ZINC59309954
   50    54     0     0     0
SMALL
USER_CHARGES

@<TRIPOS>ATOM
      1 C1         -0.0717    1.3547   -0.0059 C.ar      1 <0>        -0.1494
      2 C2          1.1121    2.0694   -0.0110 C.ar      1 <0>        -0.0857
      3 C3          2.3239    1.4106   -0.0178 C.ar      1 <0>        -0.1338
      4 C4          2.3655    0.0184   -0.0206 C.ar      1 <0>         0.1106
      5 C5          1.1699   -0.6883   -0.0229 C.ar      1 <0>        -0.1779
      6 C6         -0.0391   -0.0284   -0.0113 C.ar      1 <0>        -0.0702
      7 C7          1.5250   -2.1623   -0.0507 C.3       1 <0>        -0.0894
      8 C8          3.0162   -2.1245   -0.4607 C.3       1 <0>         0.0903
      9 H1          3.5773   -2.9067    0.0506 H         1 <0>         0.1427
     10 O1          3.4355   -0.8232   -0.0159 O.3       1 <0>        -0.2800
     11 C9          3.1626   -2.2550   -1.9549 C.2       1 <0>         0.4879
     12 O2          3.6158   -1.3324   -2.6043 O.2       1 <0>        -0.5725
     13 N1          2.7962   -3.3790   -2.5630 N.2       1 <0>        -0.6608
     14 C10         2.8269   -3.4574   -3.8908 C.2       1 <0>         0.6541
     15 N2          3.3195   -2.5039   -4.7244 N.pl3     1 <0>        -0.6085
     16 C11         3.1752   -2.9522   -6.0333 C.ar      1 <0>         0.0765
     17 C12         3.4985   -2.4000   -7.2649 C.ar      1 <0>        -0.0982
     18 C13         3.2280   -3.0987   -8.4242 C.ar      1 <0>        -0.1032
     19 C14         2.6352   -4.3488   -8.3640 C.ar      1 <0>        -0.1028
     20 C15         2.3092   -4.9068   -7.1443 C.ar      1 <0>        -0.0985
     21 C16         2.5775   -4.2128   -5.9727 C.ar      1 <0>         0.0842
     22 N3          2.3760   -4.5062   -4.6279 N.pl3     1 <0>        -0.4812
     23 C17         1.7773   -5.7337   -4.0976 C.3       1 <0>         0.1647
     24 C18         0.5196   -5.3842   -3.2996 C.3       1 <0>        -0.1353
     25 C19        -0.1056   -6.6661   -2.7458 C.3       1 <0>        -0.1130
     26 C20         0.8992   -7.3699   -1.8316 C.3       1 <0>        -0.1230
     27 C21         2.1570   -7.7194   -2.6296 C.3       1 <0>        -0.1131
     28 C22         2.7822   -6.4375   -3.1834 C.3       1 <0>        -0.1357
     29 H2         -1.0184    1.8744    0.0069 H         1 <0>         0.1281
     30 H3          1.0877    3.1492   -0.0101 H         1 <0>         0.1314
     31 H4          3.2439    1.9764   -0.0212 H         1 <0>         0.1279
     32 H5         -0.9613   -0.5905   -0.0065 H         1 <0>         0.1242
     33 H6          1.4034   -2.6109    0.9352 H         1 <0>         0.1011
     34 H7          0.9299   -2.6924   -0.7943 H         1 <0>         0.0993
     35 H8          3.9606   -1.4251   -7.3161 H         1 <0>         0.1344
     36 H9          3.4794   -2.6685   -9.3824 H         1 <0>         0.1383
     37 H10         2.4266   -4.8893   -9.2755 H         1 <0>         0.1386
     38 H11         1.8470   -5.8820   -7.1016 H         1 <0>         0.1334
     39 H12         1.5121   -6.3945   -4.9229 H         1 <0>         0.0996
     40 H13         0.7848   -4.7233   -2.4744 H         1 <0>         0.0939
     41 H14        -0.1963   -4.8828   -3.9510 H         1 <0>         0.0630
     42 H15        -1.0017   -6.4171   -2.1773 H         1 <0>         0.0702
     43 H16        -0.3709   -7.3269   -3.5711 H         1 <0>         0.0625
     44 H17         1.1645   -6.7091   -1.0063 H         1 <0>         0.0690
     45 H18         0.4538   -8.2831   -1.4370 H         1 <0>         0.0653
     46 H19         2.8729   -8.2208   -1.9783 H         1 <0>         0.0703
     47 H20         1.8917   -8.3802   -3.4548 H         1 <0>         0.0622
     48 H21         3.6783   -6.6865   -3.7519 H         1 <0>         0.0633
     49 H22         3.0474   -5.7767   -2.3582 H         1 <0>         0.0957
     50 H23         3.7052   -1.6562   -4.4533 H         1 <0>         0.4496
@<TRIPOS>BOND
     1    1    6 ar
     2    1    2 ar
     3    1   29 1
     4    2    3 ar
     5    2   30 1
     6    3    4 ar
     7    3   31 1
     8    4   10 1
     9    4    5 ar
    10    5    6 ar
    11    5    7 1
    12    6   32 1
    13    7    8 1
    14    7   33 1
    15    7   34 1
    16    8    9 1
    17    8   10 1
    18    8   11 1
    19   11   12 2
    20   11   13 1
    21   13   14 2
    22   14   22 1
    23   14   15 1
    24   15   16 1
    25   15   50 1
    26   16   21 ar
    27   16   17 ar
    28   17   18 ar
    29   17   35 1
    30   18   19 ar
    31   18   36 1
    32   19   20 ar
    33   19   37 1
    34   20   21 ar
    35   20   38 1
    36   21   22 1
    37   22   23 1
    38   23   28 1
    39   23   24 1
    40   23   39 1
    41   24   25 1
    42   24   40 1
    43   24   41 1
    44   25   26 1
    45   25   42 1
    46   25   43 1
    47   26   27 1
    48   26   44 1
    49   26   45 1
    50   27   28 1
    51   27   46 1
    52   27   47 1
    53   28   48 1
    54   28   49 1
@<TRIPOS>MOLECULE
ZINC06060083
   44    45     0     0     0
SMALL
USER_CHARGES
1-[(1-cyanocyclohexyl)carbamoyl]ethyl 2-amino-4-chloro-benzoate
@<TRIPOS>ATOM
      1 C1          0.0107    1.4692   -0.0230 C.3       1 <0>        -0.1683
      2 C2          0.0216   -0.0606   -0.0016 C.3       1 <0>         0.0737
      3 H1          0.5409   -0.4078    0.8916 H         1 <0>         0.1174
      4 C3          0.7315   -0.5751   -1.2273 C.2       1 <0>         0.5192
      5 O1          0.1207   -1.2118   -2.0594 O.2       1 <0>        -0.4965
      6 N1          2.0452   -0.3276   -1.3988 N.am      1 <0>        -0.7191
      7 C4          2.7354   -0.8277   -2.5904 C.3       1 <0>         0.2844
      8 C5          2.6381   -2.3541   -2.6331 C.3       1 <0>        -0.1292
      9 C6          3.3589   -2.8764   -3.8775 C.3       1 <0>        -0.1223
     10 C7          4.8304   -2.4604   -3.8269 C.3       1 <0>        -0.1238
     11 C8          4.9276   -0.9341   -3.7841 C.3       1 <0>        -0.1214
     12 C9          4.2069   -0.4117   -2.5397 C.3       1 <0>        -0.1192
     13 C10         2.1067   -0.2621   -3.7952 C.1       1 <0>         0.2029
     14 N2          1.6216    0.1745   -4.7250 N.1       1 <0>        -0.4060
     15 O2         -1.3439   -0.5542    0.0098 O.3       1 <0>        -0.3194
     16 C11        -1.9153   -0.7454    1.2153 C.2       1 <0>         0.5291
     17 O3         -1.2895   -0.5061    2.2293 O.2       1 <0>        -0.5218
     18 C12        -3.2977   -1.2442    1.3039 C.ar      1 <0>        -0.2230
     19 C13        -4.0635   -1.4040    0.1448 C.ar      1 <0>         0.0073
     20 C14        -5.3555   -1.8707    0.2340 C.ar      1 <0>        -0.1891
     21 C15        -5.9038   -2.1848    1.4696 C.ar      1 <0>         0.0557
     22 C16        -5.1604   -2.0324    2.6234 C.ar      1 <0>        -0.2105
     23 C17        -3.8533   -1.5679    2.5525 C.ar      1 <0>         0.3020
     24 N3         -3.1018   -1.4192    3.7103 N.pl3     1 <0>        -0.8482
     25 Cl1        -7.5346   -2.7723    1.5655 Cl        1 <0>        -0.0561
     26 H2          1.0357    1.8398   -0.0316 H         1 <0>         0.0838
     27 H3         -0.5087    1.8164   -0.9163 H         1 <0>         0.0753
     28 H4         -0.5028    1.8413    0.8635 H         1 <0>         0.0801
     29 H5          2.5338    0.1816   -0.7333 H         1 <0>         0.4119
     30 H6          3.1036   -2.7729   -1.7409 H         1 <0>         0.0868
     31 H7          1.5898   -2.6504   -2.6692 H         1 <0>         0.0935
     32 H8          2.8934   -2.4575   -4.7697 H         1 <0>         0.0628
     33 H9          3.2896   -3.9637   -3.9080 H         1 <0>         0.0764
     34 H10         5.3438   -2.8325   -4.7134 H         1 <0>         0.0697
     35 H11         5.2959   -2.8792   -2.9347 H         1 <0>         0.0704
     36 H12         4.4621   -0.5152   -4.6763 H         1 <0>         0.0646
     37 H13         5.9759   -0.6377   -3.7481 H         1 <0>         0.0795
     38 H14         4.2762    0.6756   -2.5093 H         1 <0>         0.0812
     39 H15         4.6724   -0.8306   -1.6476 H         1 <0>         0.0951
     40 H16        -3.6416   -1.1618   -0.8194 H         1 <0>         0.1485
     41 H17        -5.9454   -1.9934   -0.6623 H         1 <0>         0.1409
     42 H18        -5.5941   -2.2790    3.5813 H         1 <0>         0.1428
     43 H19        -2.2203   -1.0167    3.6680 H         1 <0>         0.4185
     44 H20        -3.4583   -1.7178    4.5616 H         1 <0>         0.4004
@<TRIPOS>BOND
     1    1    2 1
     2    1   26 1
     3    1   27 1
     4    1   28 1
     5    2    3 1
     6    2    4 1
     7    2   15 1
     8    4    5 2
     9    4    6 am
    10    6    7 1
    11    6   29 1
    12    7   12 1
    13    7    8 1
    14    7   13 1
    15    8    9 1
    16    8   30 1
    17    8   31 1
    18    9   10 1
    19    9   32 1
    20    9   33 1
    21   10   11 1
    22   10   34 1
    23   10   35 1
    24   11   12 1
    25   11   36 1
    26   11   37 1
    27   12   38 1
    28   12   39 1
    29   13   14 3
    30   15   16 1
    31   16   17 2
    32   16   18 1
    33   18   23 ar
    34   18   19 ar
    35   19   20 ar
    36   19   40 1
    37   20   21 ar
    38   20   41 1
    39   21   22 ar
    40   21   25 1
    41   22   23 ar
    42   22   42 1
    43   23   24 1
    44   24   43 1
    45   24   44 1
@<TRIPOS>MOLECULE
ZINC20715332
   39    42     0     0     0
SMALL
USER_CHARGES
6-amino-3-benzhydryl-5H-[1,2,4]triazolo[3,4-b][1,3,4]thiadiazine-7-carbonitrile
@<TRIPOS>ATOM
      1 C1          1.2450    3.0074    0.1010 C.ar      1 <0>        -0.1117
      2 C2          0.0687    3.7329    0.0734 C.ar      1 <0>        -0.1175
      3 C3         -1.1476    3.0767    0.0432 C.ar      1 <0>        -0.0950
      4 C4         -1.1876    1.6949    0.0460 C.ar      1 <0>        -0.0879
      5 C5         -0.0112    0.9694    0.0682 C.ar      1 <0>        -0.1084
      6 C6          1.2051    1.6256    0.0984 C.ar      1 <0>        -0.1216
      7 C7         -2.5137    0.9795    0.0193 C.3       1 <0>         0.0917
      8 C8         -3.2464    1.2313    1.3119 C.ar      1 <0>        -0.0885
      9 C9         -3.7088    2.4999    1.6085 C.ar      1 <0>        -0.0948
     10 C10        -4.3852    2.7298    2.7919 C.ar      1 <0>        -0.1173
     11 C11        -4.5899    1.6935    3.6836 C.ar      1 <0>        -0.1115
     12 C12        -4.1230    0.4262    3.3894 C.ar      1 <0>        -0.1213
     13 C13        -3.4512    0.1950    2.2036 C.ar      1 <0>        -0.1087
     14 C14        -3.3380    1.4921   -1.1335 C.2       1 <0>         0.2179
     15 N1         -3.7350    2.7239   -1.3169 N.2       1 <0>        -0.2599
     16 N2         -4.4210    2.8133   -2.4054 N.2       1 <0>        -0.2351
     17 C15        -4.5043    1.6395   -2.9654 C.2       1 <0>         0.1430
     18 N3         -3.8127    0.7604   -2.1735 N.pl3     1 <0>        -0.2679
     19 N4         -3.6732   -0.5971   -2.4614 N.pl3     1 <0>        -0.5356
     20 C16        -3.9381   -1.0791   -3.7160 C.2       1 <0>         0.5440
     21 C17        -4.6306   -0.4304   -4.6775 C.2       1 <0>        -0.3426
     22 S1         -5.3260    1.1706   -4.4494 S.3       1 <0>         0.2151
     23 C18        -4.8078   -1.0764   -5.9431 C.1       1 <0>         0.2882
     24 N5         -4.9484   -1.5889   -6.9472 N.1       1 <0>        -0.4279
     25 N6         -3.4568   -2.3322   -4.0236 N.pl3     1 <0>        -0.8645
     26 H1          2.1953    3.5201    0.1249 H         1 <0>         0.1239
     27 H2          0.0999    4.8125    0.0758 H         1 <0>         0.1264
     28 H3         -2.0666    3.6435    0.0220 H         1 <0>         0.1398
     29 H4         -0.0424   -0.1102    0.0666 H         1 <0>         0.1200
     30 H5          2.1241    1.0588    0.1203 H         1 <0>         0.1242
     31 H6         -2.3452   -0.1007   -0.1022 H         1 <0>         0.0972
     32 H7         -3.5449    3.3104    0.9138 H         1 <0>         0.1400
     33 H8         -4.7497    3.7201    3.0219 H         1 <0>         0.1263
     34 H9         -5.1145    1.8742    4.6102 H         1 <0>         0.1239
     35 H10        -4.2827   -0.3834    4.0862 H         1 <0>         0.1244
     36 H11        -3.0861   -0.7951    1.9739 H         1 <0>         0.1204
     37 H12        -3.3469   -1.2951   -1.6764 H         1 <0>         0.4711
     38 H13        -3.6428   -2.7640   -5.0181 H         1 <0>         0.4519
     39 H14        -2.8863   -2.9013   -3.2748 H         1 <0>         0.4283
@<TRIPOS>BOND
     1    1    6 ar
     2    1    2 ar
     3    1   26 1
     4    2    3 ar
     5    2   27 1
     6    3    4 ar
     7    3   28 1
     8    4    5 ar
     9    4    7 1
    10    5    6 ar
    11    5   29 1
    12    6   30 1
    13    7    8 1
    14    7   14 1
    15    7   31 1
    16    8   13 ar
    17    8    9 ar
    18    9   10 ar
    19    9   32 1
    20   10   11 ar
    21   10   33 1
    22   11   12 ar
    23   11   34 1
    24   12   13 ar
    25   12   35 1
    26   13   36 1
    27   14   18 1
    28   14   15 2
    29   15   16 1
    30   16   17 2
    31   17   22 1
    32   17   18 1
    33   18   19 1
    34   19   20 1
    35   19   37 1
    36   20   21 2
    37   20   25 1
    38   21   22 1
    39   21   23 1
    40   23   24 3
    41   25   38 1
    42   25   39 1
@<TRIPOS>MOLECULE
ZINC40024006
   46    48     0     0     0
SMALL
USER_CHARGES

@<TRIPOS>ATOM
      1 C1          2.0835    1.4436    0.6709 C.3       1 <0>        -0.1360
      2 C2          1.9979    0.0783    1.3561 C.3       1 <0>         0.0779
      3 H1          2.1687    0.1979    2.4260 H         1 <0>         0.1053
      4 C3          3.0465   -0.8390    0.7800 C.2       1 <0>         0.4935
      5 O1          4.0776   -0.3813    0.3344 O.2       1 <0>        -0.5038
      6 N1          2.8332   -2.1727    0.7625 N.am      1 <0>        -0.6585
      7 C4          1.6182   -2.6733    1.2516 C.ar      1 <0>         0.1142
      8 C5          1.4775   -4.0179    1.5507 C.ar      1 <0>        -0.1244
      9 C6          0.2657   -4.4937    2.0331 C.ar      1 <0>         0.1783
     10 C7         -0.8006   -3.6229    2.2144 C.ar      1 <0>        -0.1366
     11 C8         -0.6599   -2.2801    1.9169 C.ar      1 <0>        -0.0837
     12 C9          0.5463   -1.8013    1.4360 C.ar      1 <0>         0.0614
     13 O2          0.7000   -0.4819    1.1408 O.3       1 <0>        -0.2997
     14 N2          0.1184   -5.8538    2.3367 N.am      1 <0>        -0.6839
     15 C10         1.1660   -6.5553    2.8131 C.2       1 <0>         0.7080
     16 O3          2.2104   -5.9885    3.0708 O.2       1 <0>        -0.5617
     17 N3          1.0559   -7.8849    3.0039 N.am      1 <0>        -0.7354
     18 C11         2.1947   -8.6473    3.5217 C.3       1 <0>         0.2563
     19 H2          3.1215   -8.2249    3.1334 H         1 <0>         0.1115
     20 C12         2.0766  -10.0851    3.0857 C.2       1 <0>        -0.1570
     21 C13         3.0480  -10.9327    2.6673 C.2       1 <0>        -0.1388
     22 C14         2.7042  -12.2239    2.3134 C.2       1 <0>        -0.1562
     23 C15         1.4058  -12.6043    2.3953 C.2       1 <0>        -0.1645
     24 S1          0.6220  -11.1161    2.9938 S.3       1 <0>         0.0369
     25 C16         2.2030   -8.5769    5.0500 C.3       1 <0>        -0.1015
     26 C17         3.3923   -9.3732    5.5908 C.3       1 <0>        -0.1473
     27 C18         2.3229   -7.1172    5.4926 C.3       1 <0>        -0.1374
     28 H3          1.3263    2.1075    1.0879 H         1 <0>         0.0816
     29 H4          3.0724    1.8714    0.8357 H         1 <0>         0.0923
     30 H5          1.9129    1.3245   -0.3991 H         1 <0>         0.0713
     31 H6          3.5102   -2.7751    0.4165 H         1 <0>         0.4168
     32 H7          2.3075   -4.6942    1.4090 H         1 <0>         0.1476
     33 H8         -1.7425   -3.9956    2.5892 H         1 <0>         0.1384
     34 H9         -1.4910   -1.6052    2.0591 H         1 <0>         0.1456
     35 H10        -0.7376   -6.2905    2.2040 H         1 <0>         0.4102
     36 H11         0.2227   -8.3370    2.7983 H         1 <0>         0.3982
     37 H12         4.0752  -10.6041    2.6109 H         1 <0>         0.1358
     38 H13         3.4588  -12.9192    1.9764 H         1 <0>         0.1373
     39 H14         0.9613  -13.5608    2.1627 H         1 <0>         0.1879
     40 H15         1.2762   -8.9993    5.4383 H         1 <0>         0.0731
     41 H16         4.3191   -8.9507    5.2026 H         1 <0>         0.0584
     42 H17         3.3982   -9.3230    6.6797 H         1 <0>         0.0607
     43 H18         3.3069  -10.4130    5.2755 H         1 <0>         0.0583
     44 H19         1.4757   -6.5499    5.1074 H         1 <0>         0.0532
     45 H20         2.3288   -7.0670    6.5815 H         1 <0>         0.0503
     46 H21         3.2497   -6.6948    5.1044 H         1 <0>         0.0660
@<TRIPOS>BOND
     1    1    2 1
     2    1   28 1
     3    1   29 1
     4    1   30 1
     5    2    3 1
     6    2   13 1
     7    2    4 1
     8    4    5 2
     9    4    6 am
    10    6    7 1
    11    6   31 1
    12    7   12 ar
    13    7    8 ar
    14    8    9 ar
    15    8   32 1
    16    9   10 ar
    17    9   14 1
    18   10   11 ar
    19   10   33 1
    20   11   12 ar
    21   11   34 1
    22   12   13 1
    23   14   15 am
    24   14   35 1
    25   15   16 2
    26   15   17 am
    27   17   18 1
    28   17   36 1
    29   18   19 1
    30   18   20 1
    31   18   25 1
    32   20   24 1
    33   20   21 2
    34   21   22 1
    35   21   37 1
    36   22   23 2
    37   22   38 1
    38   23   24 1
    39   23   39 1
    40   25   26 1
    41   25   27 1
    42   25   40 1
    43   26   41 1
    44   26   42 1
    45   26   43 1
    46   27   44 1
    47   27   45 1
    48   27   46 1
@<TRIPOS>MOLECULE
ZINC54420607
   45    48     0     0     0
SMALL
USER_CHARGES

@<TRIPOS>ATOM
      1 C1         -0.0184    1.5028    0.0103 C.3       1 <0>        -0.1005
      2 C2          0.0021   -0.0041    0.0020 C.2       1 <0>        -0.0525
      3 C3          0.0087   -0.8769   -1.1714 C.ar      1 <0>        -0.1466
      4 C4         -0.0004   -0.6545   -2.5506 C.ar      1 <0>        -0.0537
      5 C5          0.0102   -1.7181   -3.4080 C.ar      1 <0>        -0.1375
      6 C6          0.0300   -3.0169   -2.9177 C.ar      1 <0>        -0.0752
      7 C7          0.0393   -3.2575   -1.5610 C.ar      1 <0>        -0.1137
      8 C8          0.0288   -2.1913   -0.6689 C.ar      1 <0>         0.0793
      9 O1          0.0337   -2.1131    0.6760 O.3       1 <0>        -0.1880
     10 C9          0.0240   -0.8264    1.0826 C.2       1 <0>        -0.0462
     11 C10         0.0318   -0.3820    2.4836 C.2       1 <0>         0.6088
     12 O2          0.0182    0.8061    2.7450 O.2       1 <0>        -0.5020
     13 N1          0.0540   -1.2907    3.4787 N.am      1 <0>        -0.5190
     14 N2          0.0615   -0.8671    4.8141 N.am      1 <0>        -0.5278
     15 C11         0.0837   -1.7758    5.8092 C.2       1 <0>         0.7149
     16 O3          0.0902   -1.4082    6.9681 O.2       1 <0>        -0.5603
     17 N3          0.0988   -3.0920    5.5196 N.am      1 <0>        -0.7344
     18 C12         0.1229   -4.0797    6.6013 C.3       1 <0>         0.2016
     19 H1         -0.4498   -3.7184    7.4554 H         1 <0>         0.1096
     20 C13        -0.4438   -5.4280    6.1081 C.3       1 <0>        -0.1249
     21 C14         0.4123   -6.4511    6.8842 C.3       1 <0>        -0.0806
     22 C15         1.7162   -5.7386    7.1730 C.ar      1 <0>        -0.0924
     23 C16         1.5498   -4.3738    7.0122 C.ar      1 <0>        -0.1158
     24 C17         2.6163   -3.5176    7.2273 C.ar      1 <0>        -0.0852
     25 C18         3.8468   -4.0205    7.6032 C.ar      1 <0>        -0.1231
     26 C19         4.0147   -5.3827    7.7658 C.ar      1 <0>        -0.1121
     27 C20         2.9501   -6.2424    7.5482 C.ar      1 <0>        -0.1103
     28 H2          1.0042    1.8801    0.0026 H         1 <0>         0.0829
     29 H3         -0.5455    1.8639   -0.8728 H         1 <0>         0.0740
     30 H4         -0.5286    1.8543    0.9071 H         1 <0>         0.0933
     31 H5         -0.0161    0.3538   -2.9373 H         1 <0>         0.1329
     32 H6          0.0029   -1.5474   -4.4744 H         1 <0>         0.1350
     33 H7          0.0379   -3.8479   -3.6075 H         1 <0>         0.1404
     34 H8          0.0543   -4.2722   -1.1914 H         1 <0>         0.1373
     35 H9          0.0649   -2.2380    3.2703 H         1 <0>         0.4252
     36 H10         0.0507    0.0802    5.0225 H         1 <0>         0.4458
     37 H11         0.0936   -3.3853    4.5951 H         1 <0>         0.3926
     38 H12        -1.4971   -5.5251    6.3715 H         1 <0>         0.0895
     39 H13        -0.3003   -5.5387    5.0333 H         1 <0>         0.0802
     40 H14        -0.0815   -6.7284    7.8156 H         1 <0>         0.0872
     41 H15         0.5919   -7.3353    6.2726 H         1 <0>         0.0816
     42 H16         2.4859   -2.4530    7.1005 H         1 <0>         0.1188
     43 H17         4.6769   -3.3499    7.7695 H         1 <0>         0.1240
     44 H18         4.9761   -5.7776    8.0596 H         1 <0>         0.1249
     45 H19         3.0807   -7.3069    7.6753 H         1 <0>         0.1220
@<TRIPOS>BOND
     1    1    2 1
     2    1   28 1
     3    1   29 1
     4    1   30 1
     5    2   10 2
     6    2    3 1
     7    3    8 ar
     8    3    4 ar
     9    4    5 ar
    10    4   31 1
    11    5    6 ar
    12    5   32 1
    13    6    7 ar
    14    6   33 1
    15    7    8 ar
    16    7   34 1
    17    8    9 1
    18    9   10 1
    19   10   11 1
    20   11   12 2
    21   11   13 am
    22   13   14 1
    23   13   35 1
    24   14   15 am
    25   14   36 1
    26   15   16 2
    27   15   17 am
    28   17   18 1
    29   17   37 1
    30   18   19 1
    31   18   23 1
    32   18   20 1
    33   20   21 1
    34   20   38 1
    35   20   39 1
    36   21   22 1
    37   21   40 1
    38   21   41 1
    39   22   27 ar
    40   22   23 ar
    41   23   24 ar
    42   24   25 ar
    43   24   42 1
    44   25   26 ar
    45   25   43 1
    46   26   27 ar
    47   26   44 1
    48   27   45 1
@<TRIPOS>MOLECULE
ZINC63633777
   42    44     0     0     0
SMALL
USER_CHARGES

@<TRIPOS>ATOM
      1 C1         -0.0199    1.4998    0.0182 C.3       1 <0>        -0.1154
      2 C2          0.0063   -0.0069    0.0078 C.ar      1 <0>        -0.0867
      3 C3         -0.5860   -0.7001   -1.0321 C.ar      1 <0>        -0.0925
      4 C4         -0.5644   -2.0810   -1.0448 C.ar      1 <0>        -0.1140
      5 C5          0.0532   -2.7741   -0.0123 C.ar      1 <0>         0.1492
      6 C6          0.6479   -2.0752    1.0311 C.ar      1 <0>        -0.0619
      7 C7          0.6272   -0.6931    1.0350 C.ar      1 <0>        -0.0904
      8 Cl1         1.4215   -2.9366    2.3247 Cl        1 <0>        -0.0635
      9 N1          0.0762   -4.1736   -0.0222 N.am      1 <0>        -0.6625
     10 C8         -0.0248   -4.8411   -1.1887 C.2       1 <0>         0.5074
     11 O1         -0.0327   -4.2316   -2.2374 O.2       1 <0>        -0.4949
     12 C9         -0.1279   -6.3445   -1.1902 C.3       1 <0>         0.0795
     13 N2         -0.2263   -6.8259   -2.5703 N.pl3     1 <0>        -0.6742
     14 C10        -0.3294   -8.1575   -2.8196 C.2       1 <0>         0.2853
     15 C11        -0.3177   -8.6181   -4.1176 C.2       1 <0>        -0.3333
     16 C12        -0.3161  -10.0664   -4.4110 C.ar      1 <0>         0.0585
     17 C13        -0.3263  -11.0183   -3.3980 C.ar      1 <0>        -0.1512
     18 C14        -0.3248  -12.3592   -3.7235 C.ar      1 <0>        -0.0663
     19 C15        -0.3127  -12.7624   -5.0509 C.ar      1 <0>        -0.1523
     20 C16        -0.3024  -11.8334   -6.0688 C.ar      1 <0>        -0.0315
     21 C17        -0.3043  -10.4724   -5.7615 C.ar      1 <0>        -0.1716
     22 C18        -0.2941   -9.4499   -6.8157 C.2       1 <0>         0.5716
     23 O2         -0.2839   -9.7940   -7.9824 O.2       1 <0>        -0.5077
     24 N3         -0.2963   -8.1414   -6.5133 N.am      1 <0>        -0.6644
     25 C19        -0.3125   -7.6851   -5.2503 C.2       1 <0>         0.5794
     26 O3         -0.3183   -6.4855   -5.0430 O.2       1 <0>        -0.5305
     27 H1          0.8587    1.8820   -0.5016 H         1 <0>         0.0750
     28 H2         -0.9209    1.8510   -0.4847 H         1 <0>         0.0713
     29 H3         -0.0163    1.8562    1.0482 H         1 <0>         0.0700
     30 H4         -1.0663   -0.1608   -1.8351 H         1 <0>         0.1349
     31 H5         -1.0279   -2.6213   -1.8571 H         1 <0>         0.1546
     32 H6          1.0930   -0.1488    1.8432 H         1 <0>         0.1391
     33 H7          0.1649   -4.6632    0.8105 H         1 <0>         0.4160
     34 H8          0.7583   -6.7700   -0.7193 H         1 <0>         0.1137
     35 H9         -1.0156   -6.6483   -0.6353 H         1 <0>         0.1142
     36 H10        -0.2178   -6.1940   -3.3062 H         1 <0>         0.4348
     37 H11        -0.4206   -8.8548   -2.0000 H         1 <0>         0.1671
     38 H12        -0.3350  -10.7103   -2.3629 H         1 <0>         0.1288
     39 H13        -0.3327  -13.1009   -2.9385 H         1 <0>         0.1300
     40 H14        -0.3109  -13.8158   -5.2891 H         1 <0>         0.1309
     41 H15        -0.2931  -12.1572   -7.0991 H         1 <0>         0.1380
     42 H16        -0.2894   -7.4977   -7.2389 H         1 <0>         0.4155
@<TRIPOS>BOND
     1    1    2 1
     2    1   27 1
     3    1   28 1
     4    1   29 1
     5    2    7 ar
     6    2    3 ar
     7    3    4 ar
     8    3   30 1
     9    4    5 ar
    10    4   31 1
    11    5    6 ar
    12    5    9 1
    13    6    7 ar
    14    6    8 1
    15    7   32 1
    16    9   10 am
    17    9   33 1
    18   10   11 2
    19   10   12 1
    20   12   13 1
    21   12   34 1
    22   12   35 1
    23   13   14 1
    24   13   36 1
    25   14   15 2
    26   14   37 1
    27   15   25 1
    28   15   16 1
    29   16   21 ar
    30   16   17 ar
    31   17   18 ar
    32   17   38 1
    33   18   19 ar
    34   18   39 1
    35   19   20 ar
    36   19   40 1
    37   20   21 ar
    38   20   41 1
    39   21   22 1
    40   22   23 2
    41   22   24 am
    42   24   25 am
    43   24   42 1
    44   25   26 2
@<TRIPOS>MOLECULE
ZINC00425604
   43    45     0     0     0
SMALL
USER_CHARGES
9-(2,4-dimethylphenyl)-N-tert-butyl-2,4,8,9-tetrazabicyclo[4.3.0]nona-1,3,5,7-tetraen-5-amine
@<TRIPOS>ATOM
      1 C1          3.7586   -0.5510    0.4090 C.3       1 <0>        -0.1147
      2 C2          2.4192    0.1049    0.1926 C.ar      1 <0>        -0.0886
      3 C3          2.3488    1.4622   -0.0637 C.ar      1 <0>        -0.1045
      4 C4          1.1230    2.0663   -0.2620 C.ar      1 <0>        -0.1231
      5 C5         -0.0400    1.3092   -0.2048 C.ar      1 <0>         0.1453
      6 C6          0.0340   -0.0533    0.0522 C.ar      1 <0>        -0.0807
      7 C7          1.2632   -0.6515    0.2501 C.ar      1 <0>        -0.1056
      8 C8         -1.2253   -0.8786    0.1146 C.3       1 <0>        -0.1115
      9 N1         -1.2843    1.9177   -0.4117 N.pl3     1 <0>        -0.3189
     10 C9         -1.5072    3.2583   -0.5499 C.ar      1 <0>         0.3713
     11 C10        -2.8943    3.4166   -0.7383 C.ar      1 <0>        -0.3321
     12 C11        -3.4663    2.1261   -0.7047 C.2       1 <0>         0.1075
     13 N2         -2.5143    1.2562   -0.5185 N.2       1 <0>        -0.2453
     14 C12        -3.3996    4.7196   -0.9097 C.ar      1 <0>         0.5248
     15 N3         -2.5448    5.7366   -0.8852 N.ar      1 <0>        -0.5973
     16 C13        -1.2510    5.5387   -0.7048 C.ar      1 <0>         0.3867
     17 N4         -0.7326    4.3412   -0.5409 N.ar      1 <0>        -0.5750
     18 N5         -4.7506    4.9354   -1.0983 N.pl3     1 <0>        -0.6879
     19 C14        -5.2571    6.2987   -1.2744 C.3       1 <0>         0.1743
     20 C15        -4.6065    6.9293   -2.5072 C.3       1 <0>        -0.1645
     21 C16        -6.7749    6.2585   -1.4630 C.3       1 <0>        -0.1586
     22 C17        -4.9189    7.1322   -0.0367 C.3       1 <0>        -0.1645
     23 H1          4.1532   -0.8954   -0.5469 H         1 <0>         0.0721
     24 H2          4.4488    0.1689    0.8489 H         1 <0>         0.0683
     25 H3          3.6425   -1.4008    1.0816 H         1 <0>         0.0674
     26 H4          3.2535    2.0504   -0.1080 H         1 <0>         0.1317
     27 H5          1.0688    3.1262   -0.4620 H         1 <0>         0.1550
     28 H6          1.3215   -1.7113    0.4497 H         1 <0>         0.1304
     29 H7         -1.5200   -1.1686   -0.8939 H         1 <0>         0.0715
     30 H8         -1.0447   -1.7725    0.7116 H         1 <0>         0.0599
     31 H9         -2.0222   -0.2916    0.5713 H         1 <0>         0.0884
     32 H10        -4.5158    1.8981   -0.8190 H         1 <0>         0.1974
     33 H11        -0.5927    6.3947   -0.6919 H         1 <0>         0.2046
     34 H12        -5.3641    4.1842   -1.1142 H         1 <0>         0.4110
     35 H13        -4.8474    6.3355   -3.3890 H         1 <0>         0.0507
     36 H14        -4.9833    7.9437   -2.6382 H         1 <0>         0.0646
     37 H15        -3.5252    6.9579   -2.3728 H         1 <0>         0.0858
     38 H16        -7.2384    5.8093   -0.5847 H         1 <0>         0.0626
     39 H17        -7.1517    7.2729   -1.5940 H         1 <0>         0.0778
     40 H18        -7.0158    5.6648   -2.3448 H         1 <0>         0.0626
     41 H19        -3.8376    7.1608    0.0977 H         1 <0>         0.0858
     42 H20        -5.2957    8.1466   -0.1676 H         1 <0>         0.0646
     43 H21        -5.3824    6.6830    0.8416 H         1 <0>         0.0507
@<TRIPOS>BOND
     1    1    2 1
     2    1   23 1
     3    1   24 1
     4    1   25 1
     5    2    7 ar
     6    2    3 ar
     7    3    4 ar
     8    3   26 1
     9    4    5 ar
    10    4   27 1
    11    5    6 ar
    12    5    9 1
    13    6    7 ar
    14    6    8 1
    15    7   28 1
    16    8   29 1
    17    8   30 1
    18    8   31 1
    19    9   13 1
    20    9   10 1
    21   10   17 ar
    22   10   11 ar
    23   11   12 1
    24   11   14 ar
    25   12   13 2
    26   12   32 1
    27   14   15 ar
    28   14   18 1
    29   15   16 ar
    30   16   17 ar
    31   16   33 1
    32   18   19 1
    33   18   34 1
    34   19   20 1
    35   19   21 1
    36   19   22 1
    37   20   35 1
    38   20   36 1
    39   20   37 1
    40   21   38 1
    41   21   39 1
    42   21   40 1
    43   22   41 1
    44   22   42 1
    45   22   43 1
@<TRIPOS>MOLECULE
ZINC00059216
   36    39     0     0     0
SMALL
USER_CHARGES
(4-hydroxyphenyl)methyleneaminoBLAHdione
@<TRIPOS>ATOM
      1 C1         -2.3870    1.3534    0.2934 C.ar      1 <0>        -0.1378
      2 C2         -1.2346    2.0714    0.1488 C.ar      1 <0>        -0.0462
      3 C3         -0.0047    1.4064    0.0026 C.ar      1 <0>        -0.0757
      4 C4          1.2092    2.1003   -0.1437 C.ar      1 <0>        -0.0451
      5 C5          2.3783    1.4097   -0.2875 C.ar      1 <0>        -0.1387
      6 C6          2.4073    0.0201   -0.2950 C.ar      1 <0>        -0.0011
      7 C7          1.2313   -0.7020   -0.1539 C.ar      1 <0>        -0.1600
      8 C8          0.0113   -0.0039   -0.0034 C.ar      1 <0>         0.0085
      9 C9         -1.1926   -0.7307    0.1416 C.ar      1 <0>        -0.1581
     10 C10        -2.3845   -0.0365    0.2891 C.ar      1 <0>        -0.0013
     11 C11        -1.1354   -2.1994    0.1309 C.2       1 <0>         0.5761
     12 O1         -2.1587   -2.8454    0.2541 O.2       1 <0>        -0.4752
     13 N1          0.0434   -2.8337   -0.0144 N.am      1 <0>        -0.4317
     14 C12         1.2076   -2.1717   -0.1547 C.2       1 <0>         0.5616
     15 O2          2.2452   -2.7933   -0.2831 O.2       1 <0>        -0.4882
     16 N2          0.0594   -4.2346   -0.0193 N.2       1 <0>        -0.2581
     17 C13         0.6391   -4.8806    0.9460 C.2       1 <0>         0.1970
     18 C14         0.7561   -6.3485    0.8845 C.ar      1 <0>        -0.0861
     19 C15         0.2384   -7.0477   -0.2093 C.ar      1 <0>        -0.0466
     20 C16         0.3543   -8.4195   -0.2648 C.ar      1 <0>        -0.1540
     21 C17         0.9751   -9.1086    0.7694 C.ar      1 <0>         0.1350
     22 C18         1.4864   -8.4184    1.8611 C.ar      1 <0>        -0.1532
     23 C19         1.3798   -7.0461    1.9227 C.ar      1 <0>        -0.0590
     24 O3          1.0821  -10.4615    0.7132 O.3       1 <0>        -0.4984
     25 H1         -3.3237    1.8782    0.4096 H         1 <0>         0.1422
     26 H2         -1.2669    3.1509    0.1558 H         1 <0>         0.1433
     27 H3          1.2171    3.1803   -0.1416 H         1 <0>         0.1434
     28 H4          3.3029    1.9566   -0.3986 H         1 <0>         0.1420
     29 H5          3.3475   -0.4985   -0.4106 H         1 <0>         0.1470
     30 H6         -3.3127   -0.5773    0.4006 H         1 <0>         0.1478
     31 H7          1.0357   -4.3423    1.7942 H         1 <0>         0.1227
     32 H8         -0.2480   -6.5131   -1.0118 H         1 <0>         0.1412
     33 H9         -0.0417   -8.9603   -1.1116 H         1 <0>         0.1367
     34 H10         1.9680   -8.9583    2.6630 H         1 <0>         0.1376
     35 H11         1.7773   -6.5103    2.7720 H         1 <0>         0.1360
     36 H12         0.3364  -10.9319    1.1104 H         1 <0>         0.3966
@<TRIPOS>BOND
     1    1   10 ar
     2    1    2 ar
     3    1   25 1
     4    2    3 ar
     5    2   26 1
     6    3    8 ar
     7    3    4 ar
     8    4    5 ar
     9    4   27 1
    10    5    6 ar
    11    5   28 1
    12    6    7 ar
    13    6   29 1
    14    7   14 1
    15    7    8 ar
    16    8    9 ar
    17    9   10 ar
    18    9   11 1
    19   10   30 1
    20   11   12 2
    21   11   13 am
    22   13   14 am
    23   13   16 1
    24   14   15 2
    25   16   17 2
    26   17   18 1
    27   17   31 1
    28   18   23 ar
    29   18   19 ar
    30   19   20 ar
    31   19   32 1
    32   20   21 ar
    33   20   33 1
    34   21   22 ar
    35   21   24 1
    36   22   23 ar
    37   22   34 1
    38   23   35 1
    39   24   36 1
@<TRIPOS>MOLECULE
ZINC28575023
   41    43     0     0     0
SMALL
USER_CHARGES
N-(1,5-dimethylpyrazol-4-yl)-5-ethyl-3-methyl-benzofuran-2-carboxamide
@<TRIPOS>ATOM
      1 C1         -0.0127    1.0858    0.0080 C.3       1 <0>        -0.1506
      2 C2         -0.7288    1.5792    1.2668 C.3       1 <0>        -0.0845
      3 C3         -0.7493    3.0861    1.2751 C.ar      1 <0>        -0.0996
      4 C4         -1.8078    3.7645    0.6863 C.ar      1 <0>        -0.0761
      5 C5         -1.8469    5.1420    0.6829 C.ar      1 <0>        -0.1093
      6 C6         -0.8173    5.8651    1.2743 C.ar      1 <0>         0.0713
      7 C7          0.2531    5.1722    1.8696 C.ar      1 <0>        -0.1405
      8 C8          0.2712    3.7753    1.8669 C.ar      1 <0>        -0.0550
      9 C9          1.1510    6.2022    2.3908 C.2       1 <0>        -0.0652
     10 C10         0.5762    7.3935    2.0822 C.2       1 <0>        -0.0412
     11 O1         -0.5831    7.1832    1.4245 O.3       1 <0>        -0.1871
     12 C11         1.1331    8.7124    2.4142 C.2       1 <0>         0.6068
     13 O2          2.1899    8.7937    3.0118 O.2       1 <0>        -0.5067
     14 N1          0.4732    9.8318    2.0566 N.am      1 <0>        -0.6393
     15 C12         1.0063   11.0945    2.3744 C.2       1 <0>        -0.0013
     16 C13         2.2051   11.3359    3.0614 C.2       1 <0>         0.0545
     17 N2          2.3676   12.6301    3.1633 N.2       1 <0>        -0.2835
     18 N3          1.2752   13.2615    2.5551 N.pl3     1 <0>        -0.3701
     19 C14         0.4489   12.2960    2.0758 C.2       1 <0>         0.0524
     20 C15        -0.8508   12.5179    1.3459 C.3       1 <0>        -0.0958
     21 C16         1.0614   14.7073    2.4545 C.3       1 <0>         0.0995
     22 C17         2.4506    5.9857    3.1225 C.3       1 <0>        -0.1135
     23 H1          0.0022   -0.0141    0.0020 H         1 <0>         0.0606
     24 H2          1.0193    1.4666    0.0002 H         1 <0>         0.0564
     25 H3         -0.5448    1.4502   -0.8831 H         1 <0>         0.0569
     26 H4         -1.7608    1.1984    1.2746 H         1 <0>         0.0756
     27 H5         -0.1968    1.2148    2.1580 H         1 <0>         0.0745
     28 H6         -2.6098    3.2065    0.2261 H         1 <0>         0.1379
     29 H7         -2.6758    5.6587    0.2220 H         1 <0>         0.1364
     30 H8          1.0902    3.2425    2.3271 H         1 <0>         0.1302
     31 H9         -0.4821    9.7582    1.5163 H         1 <0>         0.4387
     32 H10         2.8803   10.5823    3.4389 H         1 <0>         0.2064
     33 H11        -1.0397   13.5976    1.2535 H         1 <0>         0.0759
     34 H12        -1.6717   12.0488    1.9081 H         1 <0>         0.0847
     35 H13        -0.7896   12.0692    0.3434 H         1 <0>         0.0847
     36 H14         0.1176   14.9023    1.9242 H         1 <0>         0.0932
     37 H15         1.8947   15.1634    1.8999 H         1 <0>         0.0830
     38 H16         1.0114   15.1416    3.4639 H         1 <0>         0.0830
     39 H17         2.8906    6.9593    3.3842 H         1 <0>         0.1046
     40 H18         3.1468    5.4303    2.4768 H         1 <0>         0.0760
     41 H19         2.2629    5.4095    4.0405 H         1 <0>         0.0761
@<TRIPOS>BOND
     1    1    2 1
     2    1   23 1
     3    1   24 1
     4    1   25 1
     5    2    3 1
     6    2   26 1
     7    2   27 1
     8    3    8 ar
     9    3    4 ar
    10    4    5 ar
    11    4   28 1
    12    5    6 ar
    13    5   29 1
    14    6   11 1
    15    6    7 ar
    16    7    8 ar
    17    7    9 1
    18    8   30 1
    19    9   10 2
    20    9   22 1
    21   10   11 1
    22   10   12 1
    23   12   13 2
    24   12   14 am
    25   14   15 1
    26   14   31 1
    27   15   19 2
    28   15   16 1
    29   16   17 2
    30   16   32 1
    31   17   18 1
    32   18   19 1
    33   18   21 1
    34   19   20 1
    35   20   33 1
    36   20   34 1
    37   20   35 1
    38   21   36 1
    39   21   37 1
    40   21   38 1
    41   22   39 1
    42   22   40 1
    43   22   41 1
@<TRIPOS>MOLECULE
ZINC40490523
   42    44     0     0     0
SMALL
USER_CHARGES

@<TRIPOS>ATOM
      1 C1         -0.0187    1.5258    0.0104 C.3       1 <0>        -0.1389
      2 C2          0.0021   -0.0041    0.0020 C.3       1 <0>         0.0204
      3 C3          0.7421   -0.5109    1.2415 C.3       1 <0>        -0.1413
      4 C4         -1.4333   -0.5336    0.0129 C.3       1 <0>        -0.1316
      5 C5          0.7074   -0.4901   -1.2379 C.2       1 <0>         0.0397
      6 C6          2.0362   -0.4723   -1.4463 C.2       1 <0>         0.0089
      7 N1          2.2741   -1.0056   -2.7063 N.pl3     1 <0>        -0.3100
      8 C7          1.0357   -1.3212   -3.1937 C.2       1 <0>         0.1347
      9 N2          0.1182   -1.0197   -2.3201 N.2       1 <0>        -0.4178
     10 S1          1.4132   -1.9928   -4.7952 S.3       1 <0>         0.1012
     11 C8          3.1881   -1.8121   -4.7160 C.2       1 <0>         0.3820
     12 N3          3.3567   -1.2803   -3.5353 N.2       1 <0>        -0.3581
     13 N4          4.1413   -2.1499   -5.6635 N.pl3     1 <0>        -0.5493
     14 C9          5.5694   -1.9249   -5.4018 C.3       1 <0>         0.1220
     15 C10         6.3245   -3.2392   -5.6242 C.3       1 <0>        -0.1355
     16 C11         6.0182   -3.7677   -7.0274 C.3       1 <0>        -0.1163
     17 C12         4.5184   -4.0449   -7.1539 C.3       1 <0>        -0.1048
     18 H1          4.2174   -4.7696   -6.3974 H         1 <0>         0.0880
     19 C13         3.7434   -2.7454   -6.9464 C.3       1 <0>         0.1323
     20 C14         4.2182   -4.6048   -8.5457 C.3       1 <0>         0.0815
     21 O1          2.8394   -4.9721   -8.6241 O.3       1 <0>        -0.5739
     22 H2          1.0039    1.9031    0.0027 H         1 <0>         0.0560
     23 H3         -0.5459    1.8868   -0.8726 H         1 <0>         0.0578
     24 H4         -0.5289    1.8773    0.9072 H         1 <0>         0.0642
     25 H5          0.2319   -0.1594    2.1383 H         1 <0>         0.0655
     26 H6          0.7568   -1.6008    1.2356 H         1 <0>         0.0580
     27 H7          1.7647   -0.1336    1.2338 H         1 <0>         0.0569
     28 H8         -1.9605   -0.1726   -0.8702 H         1 <0>         0.0631
     29 H9         -1.4185   -1.6235    0.0069 H         1 <0>         0.0564
     30 H10        -1.9435   -0.1821    0.9097 H         1 <0>         0.0568
     31 H11         2.7841   -0.1082   -0.7574 H         1 <0>         0.1808
     32 H12         5.9505   -1.1647   -6.0837 H         1 <0>         0.0801
     33 H13         5.7047   -1.5956   -4.3716 H         1 <0>         0.0953
     34 H14         7.3959   -3.0641   -5.5272 H         1 <0>         0.0874
     35 H15         6.0064   -3.9715   -4.8822 H         1 <0>         0.0720
     36 H16         6.3138   -3.0244   -7.7679 H         1 <0>         0.0723
     37 H17         6.5736   -4.6901   -7.1973 H         1 <0>         0.0755
     38 H18         2.6742   -2.9572   -6.9349 H         1 <0>         0.0916
     39 H19         3.9722   -2.0535   -7.7570 H         1 <0>         0.0845
     40 H20         4.4353   -3.8458   -9.2973 H         1 <0>         0.0517
     41 H21         4.8388   -5.4825   -8.7259 H         1 <0>         0.0554
     42 H22         2.5774   -5.3359   -9.4809 H         1 <0>         0.3854
@<TRIPOS>BOND
     1    1    2 1
     2    1   22 1
     3    1   23 1
     4    1   24 1
     5    2    3 1
     6    2    4 1
     7    2    5 1
     8    3   25 1
     9    3   26 1
    10    3   27 1
    11    4   28 1
    12    4   29 1
    13    4   30 1
    14    5    9 1
    15    5    6 2
    16    6    7 1
    17    6   31 1
    18    7   12 1
    19    7    8 1
    20    8    9 2
    21    8   10 1
    22   10   11 1
    23   11   12 2
    24   11   13 1
    25   13   19 1
    26   13   14 1
    27   14   15 1
    28   14   32 1
    29   14   33 1
    30   15   16 1
    31   15   34 1
    32   15   35 1
    33   16   17 1
    34   16   36 1
    35   16   37 1
    36   17   18 1
    37   17   19 1
    38   17   20 1
    39   19   38 1
    40   19   39 1
    41   20   21 1
    42   20   40 1
    43   20   41 1
    44   21   42 1
@<TRIPOS>MOLECULE
ZINC21216348
   32    34     0     0     0
SMALL
USER_CHARGES

@<TRIPOS>ATOM
      1 C1         -0.0166    1.3754    0.0096 C.ar      1 <0>        -0.1102
      2 C2          1.1681    2.0930    0.0021 C.ar      1 <0>        -0.0924
      3 C3          2.3828    1.4377   -0.0130 C.ar      1 <0>        -0.1017
      4 C4          2.4233    0.0455   -0.0209 C.ar      1 <0>        -0.0053
      5 C5          1.2200   -0.6846   -0.0133 C.ar      1 <0>         0.0209
      6 C6          0.0021   -0.0041    0.0020 C.ar      1 <0>        -0.0688
      7 C7          1.2456   -2.1163   -0.0213 C.1       1 <0>         0.2573
      8 N1          1.2659   -3.2521   -0.0276 N.1       1 <0>        -0.4186
      9 C8          3.7233   -0.6617   -0.0376 C.ar      1 <0>         0.0060
     10 C9          4.5903   -0.5602    1.0477 C.ar      1 <0>        -0.1048
     11 C10         5.8018   -1.2214    1.0278 C.ar      1 <0>        -0.0823
     12 C11         6.1648   -1.9882   -0.0672 C.ar      1 <0>        -0.1166
     13 C12         5.3201   -2.1009   -1.1521 C.ar      1 <0>        -0.0835
     14 C13         4.0887   -1.4456   -1.1477 C.ar      1 <0>        -0.1253
     15 C14         3.1778   -1.5682   -2.3025 C.2       1 <0>         0.5503
     16 O1          2.1077   -0.9909   -2.2968 O.2       1 <0>        -0.4410
     17 N2          3.5321   -2.3201   -3.3634 N.am      1 <0>        -0.6096
     18 C15         2.6745   -2.4356   -4.4507 C.2       1 <0>         0.3019
     19 N3          1.4806   -1.8966   -4.6567 N.2       1 <0>        -0.2828
     20 N4          0.8287   -2.1087   -5.7154 N.2       1 <0>        -0.2529
     21 C16         1.2903   -2.8770   -6.6820 C.2       1 <0>         0.0457
     22 S1          2.8680   -3.3486   -5.9789 S.3       1 <0>        -0.0297
     23 H1         -0.9610    1.8991    0.0260 H         1 <0>         0.1337
     24 H2          1.1412    3.1727    0.0079 H         1 <0>         0.1321
     25 H3          3.3021    2.0045   -0.0191 H         1 <0>         0.1321
     26 H4         -0.9256   -0.5570    0.0083 H         1 <0>         0.1321
     27 H5          4.3148    0.0363    1.9049 H         1 <0>         0.1406
     28 H6          6.4712   -1.1400    1.8714 H         1 <0>         0.1374
     29 H7          7.1154   -2.5008   -0.0718 H         1 <0>         0.1367
     30 H8          5.6102   -2.7000   -2.0026 H         1 <0>         0.1284
     31 H9          4.3858   -2.7807   -3.3680 H         1 <0>         0.4269
     32 H10         0.8458   -3.1424   -7.6298 H         1 <0>         0.2433
@<TRIPOS>BOND
     1    1    6 ar
     2    1    2 ar
     3    1   23 1
     4    2    3 ar
     5    2   24 1
     6    3    4 ar
     7    3   25 1
     8    4    5 ar
     9    4    9 1
    10    5    6 ar
    11    5    7 1
    12    6   26 1
    13    7    8 3
    14    9   14 ar
    15    9   10 ar
    16   10   11 ar
    17   10   27 1
    18   11   12 ar
    19   11   28 1
    20   12   13 ar
    21   12   29 1
    22   13   14 ar
    23   13   30 1
    24   14   15 1
    25   15   16 2
    26   15   17 am
    27   17   18 1
    28   17   31 1
    29   18   22 1
    30   18   19 2
    31   19   20 1
    32   20   21 2
    33   21   22 1
    34   21   32 1
@<TRIPOS>MOLECULE
ZINC67041065
   49    51     0     0     0
SMALL
USER_CHARGES

@<TRIPOS>ATOM
      1 C1         -0.0187    1.5258    0.0104 C.3       1 <0>        -0.1663
      2 C2          0.0021   -0.0041    0.0020 C.3       1 <0>         0.1644
      3 H1         -1.0205   -0.3814    0.0098 H         1 <0>         0.0878
      4 C3          0.7421   -0.5109    1.2415 C.3       1 <0>        -0.1030
      5 C4          0.0259   -0.0175    2.5003 C.3       1 <0>        -0.1478
      6 C5          0.7628   -2.0407    1.2331 C.3       1 <0>        -0.1467
      7 N1          0.6878   -0.4765   -1.2033 N.am      1 <0>        -0.7393
      8 C6          0.0062   -0.6081   -2.3585 C.2       1 <0>         0.7222
      9 O1         -1.1778   -0.3348   -2.4004 O.2       1 <0>        -0.5754
     10 N2          0.6370   -1.0428   -3.4674 N.am      1 <0>        -0.6337
     11 C7          2.0610   -1.4139   -3.5561 C.3       1 <0>         0.0972
     12 C8          2.1429   -2.3876   -4.7582 C.3       1 <0>        -0.1311
     13 C9          1.1127   -1.7628   -5.7358 C.3       1 <0>        -0.1201
     14 C10         0.0176   -1.2314   -4.7874 C.3       1 <0>         0.2070
     15 H2         -0.7956   -1.9537   -4.7154 H         1 <0>         0.0879
     16 C11        -0.5063    0.0851   -5.3005 C.ar      1 <0>        -0.0760
     17 C12         0.0326    1.2707   -4.8368 C.ar      1 <0>        -0.0953
     18 C13        -0.4458    2.4799   -5.3051 C.ar      1 <0>        -0.1135
     19 C14        -1.4658    2.5079   -6.2377 C.ar      1 <0>        -0.1154
     20 C15        -2.0112    1.3223   -6.7065 C.ar      1 <0>         0.0507
     21 C16        -1.5246    0.1060   -6.2414 C.ar      1 <0>         0.0600
     22 O2         -2.0368   -1.0695   -6.6978 O.3       1 <0>        -0.3045
     23 C17        -3.3055   -1.0051   -7.3583 C.3       1 <0>         0.0202
     24 C18        -3.2689    0.1595   -8.3571 C.3       1 <0>         0.0206
     25 O3         -3.0176    1.3658   -7.6218 O.3       1 <0>        -0.3078
     26 H3          1.0039    1.9031    0.0027 H         1 <0>         0.0546
     27 H4         -0.5459    1.8868   -0.8726 H         1 <0>         0.0614
     28 H5         -0.5289    1.8773    0.9072 H         1 <0>         0.0683
     29 H6          1.7647   -0.1336    1.2338 H         1 <0>         0.0740
     30 H7         -0.9967   -0.3948    2.5081 H         1 <0>         0.0582
     31 H8          0.5531   -0.3786    3.3834 H         1 <0>         0.0595
     32 H9          0.0111    1.0724    2.5063 H         1 <0>         0.0617
     33 H10         1.2730   -2.3923    0.3363 H         1 <0>         0.0531
     34 H11         1.2900   -2.4018    2.1162 H         1 <0>         0.0569
     35 H12        -0.2598   -2.4180    1.2409 H         1 <0>         0.0561
     36 H13         1.6324   -0.6946   -1.1699 H         1 <0>         0.3931
     37 H14         2.6725   -0.5307   -3.7410 H         1 <0>         0.0689
     38 H15         2.3807   -1.9129   -2.6413 H         1 <0>         0.0732
     39 H16         3.1427   -2.3889   -5.1925 H         1 <0>         0.0871
     40 H17         1.8441   -3.3944   -4.4666 H         1 <0>         0.0787
     41 H18         1.5641   -0.9494   -6.3038 H         1 <0>         0.0795
     42 H19         0.7058   -2.5218   -6.4041 H         1 <0>         0.0878
     43 H20         0.8286    1.2521   -4.1071 H         1 <0>         0.1229
     44 H21        -0.0223    3.4044   -4.9414 H         1 <0>         0.1297
     45 H22        -1.8385    3.4541   -6.6013 H         1 <0>         0.1332
     46 H23        -3.4914   -1.9388   -7.8891 H         1 <0>         0.1225
     47 H24        -4.0937   -0.8356   -6.6247 H         1 <0>         0.0776
     48 H25        -2.4766   -0.0069   -9.0869 H         1 <0>         0.0786
     49 H26        -4.2291    0.2367   -8.8671 H         1 <0>         0.1216
@<TRIPOS>BOND
     1    1    2 1
     2    1   26 1
     3    1   27 1
     4    1   28 1
     5    2    3 1
     6    2    4 1
     7    2    7 1
     8    4    5 1
     9    4    6 1
    10    4   29 1
    11    5   30 1
    12    5   31 1
    13    5   32 1
    14    6   33 1
    15    6   34 1
    16    6   35 1
    17    7    8 am
    18    7   36 1
    19    8    9 2
    20    8   10 am
    21   10   14 1
    22   10   11 1
    23   11   12 1
    24   11   37 1
    25   11   38 1
    26   12   13 1
    27   12   39 1
    28   12   40 1
    29   13   14 1
    30   13   41 1
    31   13   42 1
    32   14   15 1
    33   14   16 1
    34   16   21 ar
    35   16   17 ar
    36   17   18 ar
    37   17   43 1
    38   18   19 ar
    39   18   44 1
    40   19   20 ar
    41   19   45 1
    42   20   25 1
    43   20   21 ar
    44   21   22 1
    45   22   23 1
    46   23   24 1
    47   23   46 1
    48   23   47 1
    49   24   25 1
    50   24   48 1
    51   24   49 1
@<TRIPOS>MOLECULE
ZINC01390942
   41    43     0     0     0
SMALL
USER_CHARGES
methyl-oxo-N-tert-butyl-BLAHcarboxamide
@<TRIPOS>ATOM
      1 C1          2.9002   -9.6786    4.6403 C.3       1 <0>        -0.1155
      2 C2          2.2862   -8.7504    3.6242 C.ar      1 <0>        -0.1105
      3 C3          1.6397   -9.2707    2.5130 C.ar      1 <0>        -0.0508
      4 C4          1.0719   -8.4371    1.5736 C.ar      1 <0>        -0.1304
      5 C5          1.1419   -7.0562    1.7315 C.ar      1 <0>         0.1570
      6 C6          1.7971   -6.5334    2.8567 C.ar      1 <0>        -0.2193
      7 C7          2.3685   -7.3864    3.8007 C.ar      1 <0>        -0.0274
      8 C8          1.8685   -5.0665    3.0195 C.2       1 <0>         0.4437
      9 O1          2.4234   -4.5556    3.9744 O.2       1 <0>        -0.4352
     10 C9          1.2320   -4.2520    1.9652 C.ar      1 <0>        -0.2810
     11 C10         1.2459   -2.8606    2.0284 C.ar      1 <0>         0.0795
     12 C11         0.6244   -2.1521    0.9954 C.ar      1 <0>        -0.2290
     13 C12         0.0168   -2.8663   -0.0432 C.ar      1 <0>         0.2135
     14 N1          0.0294   -4.1795   -0.0700 N.ar      1 <0>        -0.4960
     15 C13         0.6061   -4.9009    0.8860 C.ar      1 <0>         0.3954
     16 O2          0.5841   -6.2451    0.8103 O.3       1 <0>        -0.2176
     17 C14         0.6044   -0.6754    1.0035 C.2       1 <0>         0.5728
     18 O3          1.1312   -0.0653    1.9136 O.2       1 <0>        -0.5210
     19 N2          0.0021   -0.0041    0.0020 N.am      1 <0>        -0.7185
     20 C15        -0.0178    1.4608    0.0101 C.3       1 <0>         0.1692
     21 C16         1.4176    1.9904   -0.0008 C.3       1 <0>        -0.1661
     22 C17        -0.7578    1.9676   -1.2295 C.3       1 <0>        -0.1574
     23 C18        -0.7339    1.9542    1.2689 C.3       1 <0>        -0.1661
     24 H1          3.9335   -9.8880    4.3635 H         1 <0>         0.0764
     25 H2          2.8755   -9.2086    5.6234 H         1 <0>         0.0719
     26 H3          2.3358  -10.6107    4.6688 H         1 <0>         0.0727
     27 H4          1.5802  -10.3412    2.3824 H         1 <0>         0.1454
     28 H5          0.5713   -8.8564    0.7134 H         1 <0>         0.1492
     29 H6          2.8716   -6.9801    4.6656 H         1 <0>         0.1457
     30 H7          1.7221   -2.3451    2.8494 H         1 <0>         0.1683
     31 H8         -0.4691   -2.3261   -0.8422 H         1 <0>         0.1778
     32 H9         -0.4183   -0.4908   -0.7241 H         1 <0>         0.3983
     33 H10         1.9278    1.6388   -0.8976 H         1 <0>         0.0555
     34 H11         1.4028    3.0802    0.0052 H         1 <0>         0.0662
     35 H12         1.9448    1.6293    0.8823 H         1 <0>         0.0786
     36 H13        -1.7804    1.5903   -1.2217 H         1 <0>         0.0638
     37 H14        -0.7726    3.0575   -1.2235 H         1 <0>         0.0769
     38 H15        -0.2476    1.6161   -2.1262 H         1 <0>         0.0638
     39 H16        -0.2067    1.5931    2.1519 H         1 <0>         0.0787
     40 H17        -0.7487    3.0441    1.2749 H         1 <0>         0.0662
     41 H18        -1.7565    1.5769    1.2766 H         1 <0>         0.0555
@<TRIPOS>BOND
     1    1    2 1
     2    1   24 1
     3    1   25 1
     4    1   26 1
     5    2    7 ar
     6    2    3 ar
     7    3    4 ar
     8    3   27 1
     9    4    5 ar
    10    4   28 1
    11    5   16 1
    12    5    6 ar
    13    6    7 ar
    14    6    8 1
    15    7   29 1
    16    8    9 2
    17    8   10 1
    18   10   15 ar
    19   10   11 ar
    20   11   12 ar
    21   11   30 1
    22   12   13 ar
    23   12   17 1
    24   13   14 ar
    25   13   31 1
    26   14   15 ar
    27   15   16 1
    28   17   18 2
    29   17   19 am
    30   19   20 1
    31   19   32 1
    32   20   21 1
    33   20   22 1
    34   20   23 1
    35   21   33 1
    36   21   34 1
    37   21   35 1
    38   22   36 1
    39   22   37 1
    40   22   38 1
    41   23   39 1
    42   23   40 1
    43   23   41 1
@<TRIPOS>MOLECULE
ZINC15314059
   31    32     0     0     0
SMALL
USER_CHARGES
5-chloro-N-(2-fluoro-4-methyl-phenyl)-2-nitro-benzamide
@<TRIPOS>ATOM
      1 C1         -5.4647   -2.1913   -0.5240 C.3       1 <0>        -0.1163
      2 C2         -4.2555   -1.2920   -0.5360 C.ar      1 <0>        -0.0696
      3 C3         -3.0141   -1.8097   -0.8573 C.ar      1 <0>        -0.1079
      4 C4         -1.9029   -0.9891   -0.8687 C.ar      1 <0>        -0.0974
      5 C5         -2.0325    0.3576   -0.5576 C.ar      1 <0>         0.1089
      6 C6         -3.2810    0.8750   -0.2297 C.ar      1 <0>         0.0759
      7 C7         -4.3900    0.0486   -0.2255 C.ar      1 <0>        -0.1349
      8 F1         -3.4113    2.1838    0.0792 F         1 <0>        -0.1379
      9 N1         -0.9084    1.1915   -0.5684 N.am      1 <0>        -0.6547
     10 C8          0.3174    0.6729   -0.3563 C.2       1 <0>         0.5609
     11 O1          0.4548   -0.5277   -0.2236 O.2       1 <0>        -0.4664
     12 C9          1.4955    1.5633   -0.2912 C.ar      1 <0>        -0.0555
     13 C10         1.7511    2.4644   -1.3262 C.ar      1 <0>        -0.0823
     14 C11         2.8529    3.2935   -1.2587 C.ar      1 <0>         0.0055
     15 C12         3.7029    3.2322   -0.1670 C.ar      1 <0>        -0.0869
     16 C13         3.4544    2.3412    0.8613 C.ar      1 <0>        -0.0400
     17 C14         2.3538    1.5106    0.8082 C.ar      1 <0>        -0.0025
     18 N2          2.0866    0.5622    1.9127 N.pl3     1 <0>         0.0177
     19 O2          2.9000    0.4264    2.8090 O.2       1 <0>        -0.1511
     20 O3          1.0532   -0.0824    1.9253 O.3       1 <0>        -0.1173
     21 Cl1         3.1733    4.4151   -2.5444 Cl        1 <0>        -0.0228
     22 H1         -5.5883   -2.6206    0.4703 H         1 <0>         0.0762
     23 H2         -6.3511   -1.6119   -0.7823 H         1 <0>         0.0696
     24 H3         -5.3293   -2.9920   -1.2512 H         1 <0>         0.0718
     25 H4         -2.9131   -2.8573   -1.0993 H         1 <0>         0.1355
     26 H5         -0.9339   -1.3951   -1.1191 H         1 <0>         0.1616
     27 H6         -5.3609    0.4497    0.0253 H         1 <0>         0.1406
     28 H7         -1.0115    2.1426   -0.7284 H         1 <0>         0.4152
     29 H8          1.0883    2.5132   -2.1775 H         1 <0>         0.1642
     30 H9          4.5636    3.8828   -0.1186 H         1 <0>         0.1668
     31 H10         4.1212    2.2982    1.7098 H         1 <0>         0.1733
@<TRIPOS>BOND
     1    1    2 1
     2    1   22 1
     3    1   23 1
     4    1   24 1
     5    2    7 ar
     6    2    3 ar
     7    3    4 ar
     8    3   25 1
     9    4    5 ar
    10    4   26 1
    11    5    6 ar
    12    5    9 1
    13    6    7 ar
    14    6    8 1
    15    7   27 1
    16    9   10 am
    17    9   28 1
    18   10   11 2
    19   10   12 1
    20   12   17 ar
    21   12   13 ar
    22   13   14 ar
    23   13   29 1
    24   14   15 ar
    25   14   21 1
    26   15   16 ar
    27   15   30 1
    28   16   17 ar
    29   16   31 1
    30   17   18 1
    31   18   19 2
    32   18   20 1
@<TRIPOS>MOLECULE
ZINC38870097
   35    38     0     0     0
SMALL
USER_CHARGES

@<TRIPOS>ATOM
      1 C1          0.0769   -1.1908   -4.2929 C.ar      1 <0>        -0.1366
      2 C2          1.2757   -0.7961   -4.8713 C.ar      1 <0>        -0.0709
      3 C3          2.4783   -1.0647   -4.2537 C.ar      1 <0>        -0.1140
      4 C4          2.4966   -1.7376   -3.0378 C.ar      1 <0>         0.0811
      5 C5          1.2783   -2.1352   -2.4555 C.ar      1 <0>        -0.1547
      6 C6          0.0700   -1.8536   -3.0982 C.ar      1 <0>        -0.0530
      7 C7          1.6364   -2.8061   -1.2067 C.2       1 <0>        -0.0798
      8 C8          2.9927   -2.7642   -1.1325 C.2       1 <0>        -0.0609
      9 O1          3.4889   -2.1327   -2.2162 O.3       1 <0>        -0.1776
     10 C9          3.7988   -3.3237   -0.0351 C.2       1 <0>         0.6229
     11 O2          3.2507   -3.8777    0.9030 O.2       1 <0>        -0.4314
     12 N1          5.1356   -3.2243   -0.0669 N.am      1 <0>        -0.6616
     13 C10         5.8868   -4.3199    0.0198 C.2       1 <0>         0.2752
     14 C11         5.2457   -5.6395    0.0120 C.2       1 <0>        -0.1169
     15 C12         5.9873   -6.7571    0.0987 C.2       1 <0>        -0.0264
     16 C13         7.4565   -6.6458    0.2017 C.2       1 <0>         0.1486
     17 N2          8.3830   -7.5556    0.2960 N.2       1 <0>        -0.4285
     18 C14         9.6909   -6.8997    0.3715 C.3       1 <0>         0.0977
     19 H1         10.1823   -7.1543    1.3106 H         1 <0>         0.1811
     20 N3          9.4420   -5.4535    0.3104 N.2       1 <0>        -0.4813
     21 C15         8.0740   -5.3011    0.2065 C.2       1 <0>         0.1917
     22 C16         7.2881   -4.1968    0.1121 C.2       1 <0>        -0.2288
     23 C17        10.5625   -7.3323   -0.8092 C.3       1 <0>         0.4979
     24 F1          9.9209   -7.0028   -2.0079 F         1 <0>        -0.1728
     25 F2         11.7956   -6.6745   -0.7442 F         1 <0>        -0.1625
     26 F3         10.7682   -8.7150   -0.7551 F         1 <0>        -0.1651
     27 H2         -0.8566   -0.9686   -4.7884 H         1 <0>         0.1364
     28 H3          1.2659   -0.2729   -5.8161 H         1 <0>         0.1419
     29 H4          3.4044   -0.7532   -4.7138 H         1 <0>         0.1389
     30 H5         -0.8653   -2.1582   -2.6523 H         1 <0>         0.1350
     31 H6          0.9600   -3.2453   -0.4884 H         1 <0>         0.1759
     32 H7          5.5553   -2.3541   -0.1532 H         1 <0>         0.4338
     33 H8          4.1709   -5.7133   -0.0635 H         1 <0>         0.1548
     34 H9          5.5133   -7.7275    0.0935 H         1 <0>         0.1617
     35 H10         7.7406   -3.2161    0.1121 H         1 <0>         0.1480
@<TRIPOS>BOND
     1    1    6 ar
     2    1    2 ar
     3    1   27 1
     4    2    3 ar
     5    2   28 1
     6    3    4 ar
     7    3   29 1
     8    4    9 1
     9    4    5 ar
    10    5    6 ar
    11    5    7 1
    12    6   30 1
    13    7    8 2
    14    7   31 1
    15    8    9 1
    16    8   10 1
    17   10   11 2
    18   10   12 am
    19   12   13 2
    20   12   32 1
    21   13   22 1
    22   13   14 1
    23   14   15 2
    24   14   33 1
    25   15   16 1
    26   15   34 1
    27   16   21 1
    28   16   17 2
    29   17   18 1
    30   18   19 1
    31   18   20 1
    32   18   23 1
    33   20   21 1
    34   21   22 2
    35   22   35 1
    36   23   24 1
    37   23   25 1
    38   23   26 1
@<TRIPOS>MOLECULE
ZINC49546805
   26    28     0     0     0
SMALL
USER_CHARGES

@<TRIPOS>ATOM
      1 C1         -0.0158    1.3147    0.0093 C.2       1 <0>         0.2016
      2 C2          1.1851    1.9465    0.0012 C.2       1 <0>        -0.7869
      3 S1          2.2939    0.5470   -0.0169 S.3       1 <0>         0.3270
      4 C3          1.1311   -0.6697   -0.0123 C.2       1 <0>         0.0935
      5 N1          0.0021   -0.0041    0.0020 N.2       1 <0>        -0.5247
      6 Cl1         1.3693   -2.3893   -0.0238 Cl        1 <0>         0.0783
      7 S2          1.5493    3.6704    0.0065 S.o2      1 <0>         2.6761
      8 O1          2.8465    3.8131   -0.5558 O.2       1 <0>        -0.9627
      9 O2          0.4097    4.3279   -0.5304 O.2       1 <0>        -0.9593
     10 N2          1.6654    4.1414    1.5898 N.2       1 <0>        -0.9548
     11 C4          1.9322    5.3901    1.8840 C.2       1 <0>         0.4816
     12 N3          2.1427    6.4550    1.0470 N.pl3     1 <0>        -0.6509
     13 C5          2.4142    7.7083    1.5807 C.2       1 <0>         0.0575
     14 C6          2.4591    7.8120    2.9088 C.2       1 <0>        -0.2134
     15 S3          2.1118    6.1638    3.4829 S.3       1 <0>         0.1751
     16 C7          2.7659    9.2089    3.3694 C.3       1 <0>        -0.0301
     17 C8          3.3361    9.9115    2.1172 C.3       1 <0>        -0.1127
     18 C9          2.6890    9.0925    0.9832 C.3       1 <0>        -0.0546
     19 H1         -0.9440    1.8666    0.0255 H         1 <0>         0.1980
     20 H2          1.8564    9.7075    3.7046 H         1 <0>         0.0942
     21 H3          3.5081    9.1921    4.1675 H         1 <0>         0.0898
     22 H4          3.0202   10.9539    2.0760 H         1 <0>         0.0964
     23 H5          4.4228    9.8326    2.0855 H         1 <0>         0.0856
     24 H6          3.3744    9.0096    0.1398 H         1 <0>         0.0879
     25 H7          1.7558    9.5585    0.6669 H         1 <0>         0.0983
     26 H8          2.1026    6.3338    0.0854 H         1 <0>         0.4092
@<TRIPOS>BOND
     1    1    5 1
     2    1    2 2
     3    1   19 1
     4    2    3 1
     5    2    7 1
     6    3    4 1
     7    4    5 2
     8    4    6 1
     9    7    8 2
    10    7    9 2
    11    7   10 1
    12   10   11 2
    13   11   15 1
    14   11   12 1
    15   12   13 1
    16   12   26 1
    17   13   18 1
    18   13   14 2
    19   14   15 1
    20   14   16 1
    21   16   17 1
    22   16   20 1
    23   16   21 1
    24   17   18 1
    25   17   22 1
    26   17   23 1
    27   18   24 1
    28   18   25 1
@<TRIPOS>MOLECULE
ZINC67020370
   31    32     0     0     0
SMALL
USER_CHARGES

@<TRIPOS>ATOM
      1 C1          0.0151    1.5127    0.0104 C.3       1 <0>        -0.1407
      2 C2          0.0298    0.0058   -0.0004 C.ar      1 <0>         0.0351
      3 C3         -0.0758   -0.6782   -1.1940 C.ar      1 <0>        -0.1254
      4 C4         -0.0629   -2.0615   -1.2055 C.ar      1 <0>        -0.0207
      5 C5          0.0562   -2.7684   -0.0219 C.ar      1 <0>        -0.0630
      6 C6          0.1630   -2.0969    1.1783 C.ar      1 <0>        -0.0164
      7 C7          0.1561   -0.7009    1.1965 C.ar      1 <0>        -0.1452
      8 C8          0.2762    0.0253    2.4783 C.2       1 <0>         0.5710
      9 O1          0.2088    1.2390    2.4980 O.2       1 <0>        -0.4969
     10 N1          0.4605   -0.6580    3.6253 N.am      1 <0>        -0.6645
     11 C9          0.4647    0.0193    4.8508 C.ar      1 <0>         0.1157
     12 C10         0.9623    1.3129    4.9288 C.ar      1 <0>        -0.0822
     13 C11         0.9650    1.9793    6.1387 C.ar      1 <0>        -0.0983
     14 C12         0.4724    1.3593    7.2737 C.ar      1 <0>        -0.0204
     15 C13        -0.0241    0.0698    7.2008 C.ar      1 <0>        -0.1266
     16 C14        -0.0348   -0.6005    5.9911 C.ar      1 <0>         0.0906
     17 F1         -0.5246   -1.8574    5.9184 F         1 <0>        -0.1270
     18 Cl1         0.4779    2.2008    8.7920 Cl        1 <0>        -0.0497
     19 N2          0.0686   -4.2483   -0.0436 N.pl3     1 <0>         0.0329
     20 O2         -0.0253   -4.8382   -1.0948 O.2       1 <0>        -0.1486
     21 O3          0.1727   -4.8673    0.9897 O.3       1 <0>        -0.1542
     22 H1          1.0386    1.8858    0.0460 H         1 <0>         0.0907
     23 H2         -0.4735    1.8777   -0.8930 H         1 <0>         0.0738
     24 H3         -0.5305    1.8645    0.8860 H         1 <0>         0.1119
     25 H4         -0.1691   -0.1324   -2.1213 H         1 <0>         0.1593
     26 H5         -0.1466   -2.5920   -2.1425 H         1 <0>         0.1625
     27 H6          0.2560   -2.6498    2.1014 H         1 <0>         0.1555
     28 H7          0.5902   -1.6190    3.6019 H         1 <0>         0.4163
     29 H8          1.3474    1.7979    4.0440 H         1 <0>         0.1630
     30 H9          1.3525    2.9856    6.1992 H         1 <0>         0.1477
     31 H10        -0.4073   -0.4120    8.0882 H         1 <0>         0.1536
@<TRIPOS>BOND
     1    1    2 1
     2    1   22 1
     3    1   23 1
     4    1   24 1
     5    2    7 ar
     6    2    3 ar
     7    3    4 ar
     8    3   25 1
     9    4    5 ar
    10    4   26 1
    11    5    6 ar
    12    5   19 1
    13    6    7 ar
    14    6   27 1
    15    7    8 1
    16    8    9 2
    17    8   10 am
    18   10   11 1
    19   10   28 1
    20   11   16 ar
    21   11   12 ar
    22   12   13 ar
    23   12   29 1
    24   13   14 ar
    25   13   30 1
    26   14   15 ar
    27   14   18 1
    28   15   16 ar
    29   15   31 1
    30   16   17 1
    31   19   20 2
    32   19   21 1
@<TRIPOS>MOLECULE
ZINC12794610
   32    35     0     0     0
SMALL
USER_CHARGES
N-[(4R)-6-chlorothiochroman-4-yl]tetrazolo[5,1-f]pyridazin-6-amine
@<TRIPOS>ATOM
      1 C1          1.2189    2.5395   -0.2135 C.ar      1 <0>        -0.0814
      2 C2          1.1517    3.9142   -0.1408 C.ar      1 <0>        -0.0865
      3 C3         -0.0811    4.5604   -0.0512 C.ar      1 <0>        -0.0568
      4 C4         -1.2507    3.8233   -0.0296 C.ar      1 <0>        -0.1000
      5 C5         -1.1703    2.4358   -0.1190 C.ar      1 <0>        -0.0877
      6 C6          0.0500    1.7987   -0.2029 C.ar      1 <0>        -0.0365
      7 Cl1         0.1196    0.0669   -0.3024 Cl        1 <0>        -0.0569
      8 C7         -2.6263    4.4095    0.0903 C.3       1 <0>         0.1979
      9 H1         -2.9366    4.3590    1.1340 H         1 <0>         0.1049
     10 C8         -2.7185    5.8523   -0.3739 C.3       1 <0>        -0.1448
     11 C9         -1.7954    6.7191    0.4951 C.3       1 <0>        -0.1080
     12 S1         -0.0864    6.3242    0.0197 S.3       1 <0>        -0.0971
     13 N1         -3.5484    3.6003   -0.7105 N.pl3     1 <0>        -0.6904
     14 C10        -4.8783    3.4758   -0.3249 C.2       1 <0>         0.4126
     15 C11        -5.3595    4.2224    0.7662 C.2       1 <0>        -0.1560
     16 C12        -6.6604    4.1124    1.1474 C.2       1 <0>         0.0073
     17 C13        -7.5083    3.2365    0.4458 C.2       1 <0>         0.1752
     18 N2         -8.7861    2.9022    0.5607 N.2       1 <0>        -0.2871
     19 N3         -9.1014    2.0396   -0.3394 N.2       1 <0>        -0.0239
     20 N4         -8.0840    1.7589   -1.0817 N.2       1 <0>        -0.0426
     21 N5         -7.0084    2.5203   -0.6073 N.pl3     1 <0>        -0.1663
     22 N6         -5.6716    2.6575   -0.9804 N.2       1 <0>        -0.2898
     23 H2          2.1765    2.0442   -0.2778 H         1 <0>         0.1449
     24 H3          2.0615    4.4961   -0.1537 H         1 <0>         0.1435
     25 H4         -2.0773    1.8494   -0.1184 H         1 <0>         0.1386
     26 H5         -3.7462    6.2020   -0.2753 H         1 <0>         0.0955
     27 H6         -2.4084    5.9216   -1.4166 H         1 <0>         0.0940
     28 H7         -1.9510    6.4866    1.5486 H         1 <0>         0.0999
     29 H8         -1.9971    7.7747    0.3130 H         1 <0>         0.1252
     30 H9         -3.2310    3.1515   -1.5097 H         1 <0>         0.4204
     31 H10        -4.6961    4.8877    1.2987 H         1 <0>         0.1692
     32 H11        -7.0363    4.6864    1.9814 H         1 <0>         0.1830
@<TRIPOS>BOND
     1    1    6 ar
     2    1    2 ar
     3    1   23 1
     4    2    3 ar
     5    2   24 1
     6    3   12 1
     7    3    4 ar
     8    4    5 ar
     9    4    8 1
    10    5    6 ar
    11    5   25 1
    12    6    7 1
    13    8    9 1
    14    8   10 1
    15    8   13 1
    16   10   11 1
    17   10   26 1
    18   10   27 1
    19   11   12 1
    20   11   28 1
    21   11   29 1
    22   13   14 1
    23   13   30 1
    24   14   22 2
    25   14   15 1
    26   15   16 2
    27   15   31 1
    28   16   17 1
    29   16   32 1
    30   17   21 1
    31   17   18 2
    32   18   19 1
    33   19   20 2
    34   20   21 1
    35   21   22 1
@<TRIPOS>MOLECULE
ZINC29530983
   39    41     0     0     0
SMALL
USER_CHARGES
4-[1-(5-nitro-2-pyridyl)-4-piperidyl]phenol
@<TRIPOS>ATOM
      1 C1         -8.8825    6.3945   -0.2025 C.ar      1 <0>        -0.0698
      2 C2        -10.0960    7.0381   -0.3489 C.ar      1 <0>        -0.1610
      3 C3        -10.5365    7.9167    0.6303 C.ar      1 <0>         0.1547
      4 C4         -9.7595    8.1418    1.7573 C.ar      1 <0>        -0.2134
      5 C5         -8.5495    7.4910    1.9019 C.ar      1 <0>        -0.0740
      6 C6         -8.1126    6.6162    0.9244 C.ar      1 <0>        -0.1231
      7 C7         -6.7920    5.9080    1.0845 C.3       1 <0>        -0.0458
      8 C8         -5.8685    6.2780   -0.0794 C.3       1 <0>        -0.1138
      9 C9         -4.5522    5.5092    0.0559 C.3       1 <0>         0.0600
     10 N1         -4.8239    4.0661    0.0489 N.pl3     1 <0>        -0.4691
     11 C10        -5.6703    3.6796    1.1850 C.3       1 <0>         0.0555
     12 C11        -7.0200    4.3939    1.0834 C.3       1 <0>        -0.1112
     13 C12        -3.6408    3.3365    0.0384 C.ar      1 <0>         0.3625
     14 C13        -3.6882    1.9459    0.0306 C.ar      1 <0>        -0.1881
     15 C14        -2.5035    1.2326    0.0206 C.ar      1 <0>         0.0121
     16 C15        -1.3061    1.9363    0.0188 C.ar      1 <0>        -0.1352
     17 C16        -1.3329    3.3162    0.0322 C.ar      1 <0>         0.2119
     18 N2         -2.4787    3.9710    0.0363 N.ar      1 <0>        -0.5098
     19 N3         -0.0144    1.2138    0.0087 N.pl3     1 <0>         0.0378
     20 O1          0.0021   -0.0041    0.0020 O.2       1 <0>        -0.1601
     21 O2          1.0320    1.8371    0.0021 O.3       1 <0>        -0.1577
     22 O3        -11.7269    8.5560    0.4855 O.3       1 <0>        -0.5116
     23 H1         -8.5367    5.7143   -0.9669 H         1 <0>         0.1278
     24 H2        -10.6989    6.8615   -1.2274 H         1 <0>         0.1277
     25 H3        -10.1004    8.8250    2.5211 H         1 <0>         0.1259
     26 H4         -7.9443    7.6659    2.7791 H         1 <0>         0.1224
     27 H5         -6.3422    6.2217    2.0381 H         1 <0>         0.0782
     28 H6         -6.3535    6.0135   -1.0306 H         1 <0>         0.0770
     29 H7         -5.6674    7.3593   -0.0585 H         1 <0>         0.0796
     30 H8         -3.8919    5.7616   -0.7868 H         1 <0>         0.0941
     31 H9         -4.0620    5.7850    1.0012 H         1 <0>         0.0585
     32 H10        -5.8298    2.5913    1.1699 H         1 <0>         0.0917
     33 H11        -5.1750    3.9645    2.1249 H         1 <0>         0.0561
     34 H12        -7.6489    4.1172    1.9425 H         1 <0>         0.0817
     35 H13        -7.5233    4.0995    0.1507 H         1 <0>         0.0806
     36 H14        -4.6374    1.4307    0.0320 H         1 <0>         0.1608
     37 H15        -2.5092    0.1527    0.0148 H         1 <0>         0.1670
     38 H16        -0.4041    3.8673    0.0349 H         1 <0>         0.1860
     39 H17       -12.0753    9.2524    1.2624 H         1 <0>         0.4340
@<TRIPOS>BOND
     1    1    6 ar
     2    1    2 ar
     3    1   23 1
     4    2    3 ar
     5    2   24 1
     6    3    4 ar
     7    3   22 1
     8    4    5 ar
     9    4   25 1
    10    5    6 ar
    11    5   26 1
    12    6    7 1
    13    7   12 1
    14    7    8 1
    15    7   27 1
    16    8    9 1
    17    8   28 1
    18    8   29 1
    19    9   10 1
    20    9   30 1
    21    9   31 1
    22   10   11 1
    23   10   13 1
    24   11   12 1
    25   11   32 1
    26   11   33 1
    27   12   34 1
    28   12   35 1
    29   13   18 ar
    30   13   14 ar
    31   14   15 ar
    32   14   36 1
    33   15   16 ar
    34   15   37 1
    35   16   17 ar
    36   16   19 1
    37   17   18 ar
    38   17   38 1
    39   19   20 2
    40   19   21 1
    41   22   39 1
@<TRIPOS>MOLECULE
ZINC41393917
   42    45     0     0     0
SMALL
USER_CHARGES

@<TRIPOS>ATOM
      1 C1         -0.0187    1.5258    0.0104 C.3       1 <0>        -0.1673
      2 C2          0.0021   -0.0041    0.0020 C.3       1 <0>         0.1342
      3 N1          0.6878   -0.4765   -1.2033 N.pl3     1 <0>        -0.3680
      4 C3          1.7469   -1.3268   -1.2395 C.2       1 <0>         0.0289
      5 C4          2.0809   -1.5096   -2.5425 C.2       1 <0>         0.0001
      6 C5          1.1991   -0.7481   -3.3231 C.2       1 <0>         0.0606
      7 N2          0.3639   -0.1365   -2.5229 N.2       1 <0>        -0.2795
      8 N3          3.1268   -2.3193   -3.0244 N.pl3     1 <0>        -0.6037
      9 C6          3.3551   -2.4140   -4.3747 C.2       1 <0>         0.6474
     10 N4          2.5935   -1.7392   -5.2112 N.2       1 <0>        -0.5423
     11 C7          2.7919   -1.8127   -6.5222 C.2       1 <0>         0.1538
     12 C8          3.8106   -2.6028   -7.0805 C.2       1 <0>        -0.2922
     13 C9          3.9063   -2.5839   -8.5414 C.2       1 <0>        -0.0348
     14 C10         3.0163   -1.8169   -9.2031 C.2       1 <0>        -0.1869
     15 S1          2.0116   -1.0838   -7.9401 S.3       1 <0>         0.1363
     16 C11         2.9057   -1.6284  -10.6854 C.3       1 <0>        -0.0336
     17 C12         4.1940   -2.1498  -11.3379 C.3       1 <0>        -0.1147
     18 C13         4.5154   -3.5297  -10.7566 C.3       1 <0>        -0.1226
     19 C14         4.9577   -3.3894   -9.2998 C.3       1 <0>        -0.0594
     20 C15         4.6220   -3.3240   -6.1482 C.2       1 <0>         0.5722
     21 O1          5.5310   -4.0351   -6.5407 O.2       1 <0>        -0.5192
     22 N5          4.3713   -3.2014   -4.8316 N.am      1 <0>        -0.5460
     23 C16         5.2018   -3.9320   -3.8710 C.3       1 <0>         0.0516
     24 H1          1.0039    1.9031    0.0027 H         1 <0>         0.0608
     25 H2         -0.5459    1.8868   -0.8726 H         1 <0>         0.0724
     26 H3         -0.5289    1.8773    0.9072 H         1 <0>         0.0769
     27 H4          0.5293   -0.3651    0.8851 H         1 <0>         0.0964
     28 H5         -1.0205   -0.3814    0.0098 H         1 <0>         0.0872
     29 H6          2.2346   -1.7753   -0.3867 H         1 <0>         0.1779
     30 H7          1.2054   -0.6816   -4.4011 H         1 <0>         0.2167
     31 H8          3.6861   -2.8103   -2.4023 H         1 <0>         0.4236
     32 H9          2.0502   -2.1880  -11.0637 H         1 <0>         0.0827
     33 H10         2.7817   -0.5695  -10.9125 H         1 <0>         0.0814
     34 H11         4.0510   -2.2312  -12.4154 H         1 <0>         0.0741
     35 H12         5.0143   -1.4639  -11.1265 H         1 <0>         0.0683
     36 H13         3.6272   -4.1595  -10.8062 H         1 <0>         0.0654
     37 H14         5.3165   -3.9890  -11.3358 H         1 <0>         0.0695
     38 H15         5.9155   -2.8709   -9.2577 H         1 <0>         0.0770
     39 H16         5.0550   -4.3776   -8.8503 H         1 <0>         0.0841
     40 H17         4.7645   -4.9130   -3.6850 H         1 <0>         0.0837
     41 H18         6.2060   -4.0529   -4.2771 H         1 <0>         0.1054
     42 H19         5.2526   -3.3737   -2.9362 H         1 <0>         0.0815
@<TRIPOS>BOND
     1    1    2 1
     2    1   24 1
     3    1   25 1
     4    1   26 1
     5    2    3 1
     6    2   27 1
     7    2   28 1
     8    3    7 1
     9    3    4 1
    10    4    5 2
    11    4   29 1
    12    5    6 1
    13    5    8 1
    14    6    7 2
    15    6   30 1
    16    8    9 1
    17    8   31 1
    18    9   22 1
    19    9   10 2
    20   10   11 1
    21   11   15 1
    22   11   12 2
    23   12   13 1
    24   12   20 1
    25   13   19 1
    26   13   14 2
    27   14   15 1
    28   14   16 1
    29   16   17 1
    30   16   32 1
    31   16   33 1
    32   17   18 1
    33   17   34 1
    34   17   35 1
    35   18   19 1
    36   18   36 1
    37   18   37 1
    38   19   38 1
    39   19   39 1
    40   20   21 2
    41   20   22 am
    42   22   23 1
    43   23   40 1
    44   23   41 1
    45   23   42 1
@<TRIPOS>MOLECULE
ZINC50373152
   35    36     0     0     0
SMALL
USER_CHARGES

@<TRIPOS>ATOM
      1 C1          2.0783    1.6540    0.1586 C.3       1 <0>         0.0321
      2 O1          1.6649    0.2884    0.0790 O.3       1 <0>        -0.3869
      3 C2          2.2431   -0.4311   -1.0119 C.3       1 <0>         0.0767
      4 H1          3.2226   -0.0185   -1.2537 H         1 <0>         0.0762
      5 C3          1.3186   -0.3549   -2.2445 C.3       1 <0>        -0.1467
      6 C4          1.4440   -1.7524   -2.9004 C.3       1 <0>        -0.1231
      7 C5          1.5218   -2.6986   -1.6767 C.3       1 <0>        -0.1333
      8 C6          2.3735   -1.9211   -0.6504 C.3       1 <0>         0.1477
      9 H2          3.4161   -2.2318   -0.7177 H         1 <0>         0.1016
     10 N1          1.8658   -2.1553    0.7037 N.am      1 <0>        -0.6989
     11 C7          2.3116   -3.2078    1.4179 C.2       1 <0>         0.5565
     12 O2          3.1349   -3.9627    0.9384 O.2       1 <0>        -0.4944
     13 C8          1.7993   -3.4441    2.7845 C.ar      1 <0>        -0.0505
     14 C9          1.8766   -2.4353    3.7461 C.ar      1 <0>        -0.0818
     15 C10         1.3963   -2.6627    5.0203 C.ar      1 <0>         0.0048
     16 C11         0.8390   -3.8884    5.3445 C.ar      1 <0>        -0.0923
     17 C12         0.7600   -4.8915    4.3954 C.ar      1 <0>        -0.0425
     18 C13         1.2312   -4.6748    3.1167 C.ar      1 <0>        -0.0118
     19 N2          1.1399   -5.7476    2.1011 N.pl3     1 <0>         0.0253
     20 O3          0.7624   -6.8511    2.4197 O.2       1 <0>        -0.1587
     21 O4          1.4428   -5.5205    0.9529 O.3       1 <0>        -0.1128
     22 Cl1         1.4916   -1.4102    6.2185 Cl        1 <0>        -0.0275
     23 H3          3.1605    1.6995    0.2809 H         1 <0>         0.0435
     24 H4          1.7938    2.1737   -0.7563 H         1 <0>         0.0446
     25 H5          1.5959    2.1304    1.0121 H         1 <0>         0.0878
     26 H6          0.2892   -0.1682   -1.9383 H         1 <0>         0.0800
     27 H7          1.6602    0.4205   -2.9302 H         1 <0>         0.0715
     28 H8          0.5654   -1.9752   -3.5058 H         1 <0>         0.0753
     29 H9          2.3531   -1.8183   -3.4982 H         1 <0>         0.0728
     30 H10         0.5253   -2.8905   -1.2788 H         1 <0>         0.0746
     31 H11         2.0118   -3.6337   -1.9481 H         1 <0>         0.0819
     32 H12         1.2089   -1.5529    1.0863 H         1 <0>         0.4105
     33 H13         2.3114   -1.4794    3.4940 H         1 <0>         0.1631
     34 H14         0.4649   -4.0619    6.3426 H         1 <0>         0.1641
     35 H15         0.3243   -5.8451    4.6545 H         1 <0>         0.1704
@<TRIPOS>BOND
     1    1    2 1
     2    1   23 1
     3    1   24 1
     4    1   25 1
     5    2    3 1
     6    3    4 1
     7    3    8 1
     8    3    5 1
     9    5    6 1
    10    5   26 1
    11    5   27 1
    12    6    7 1
    13    6   28 1
    14    6   29 1
    15    7    8 1
    16    7   30 1
    17    7   31 1
    18    8    9 1
    19    8   10 1
    20   10   11 am
    21   10   32 1
    22   11   12 2
    23   11   13 1
    24   13   18 ar
    25   13   14 ar
    26   14   15 ar
    27   14   33 1
    28   15   16 ar
    29   15   22 1
    30   16   17 ar
    31   16   34 1
    32   17   18 ar
    33   17   35 1
    34   18   19 1
    35   19   20 2
    36   19   21 1
@<TRIPOS>MOLECULE
ZINC66361100
   48    49     0     0     0
SMALL
USER_CHARGES

@<TRIPOS>ATOM
      1 C1          0.7235   -0.5711    1.2258 C.3       1 <0>        -0.1604
      2 C2         -0.0080   -0.0170    0.0015 C.3       1 <0>        -0.1135
      3 C3          0.7629   -0.3915   -1.2659 C.3       1 <0>         0.1642
      4 H1          1.7577    0.0527   -1.2332 H         1 <0>         0.0694
      5 C4          0.8838   -1.9156   -1.3619 C.3       1 <0>        -0.1335
      6 C5          1.5316   -2.2888   -2.6973 C.3       1 <0>        -0.1211
      7 C6          0.6489   -1.8008   -3.8484 C.3       1 <0>        -0.1359
      8 C7          0.5252   -0.2754   -3.7806 C.3       1 <0>         0.1116
      9 N1          0.0409    0.1038   -2.4459 N.am      1 <0>        -0.6264
     10 C8         -1.0466    0.8875   -2.3066 C.2       1 <0>         0.7082
     11 O1         -1.3817    1.2718   -1.2028 O.2       1 <0>        -0.5780
     12 N2         -1.7628    1.2453   -3.3908 N.am      1 <0>        -0.7456
     13 C9         -3.0063    2.0030   -3.2300 C.3       1 <0>         0.1624
     14 C10        -4.1622    1.0356   -2.9654 C.3       1 <0>        -0.1446
     15 C11        -5.4544    1.8333   -2.7634 C.3       1 <0>         0.1299
     16 N3         -5.6552    2.7102   -3.9251 N.am      1 <0>        -0.5953
     17 C12        -4.5693    3.6168   -4.3221 C.3       1 <0>         0.1164
     18 C13        -3.2870    2.7991   -4.5066 C.3       1 <0>        -0.1432
     19 C14        -6.8135    2.6832   -4.6137 C.2       1 <0>         0.6485
     20 O2         -7.7039    1.9287   -4.2756 O.2       1 <0>        -0.5688
     21 O3         -6.9839    3.4923   -5.6763 O.3       1 <0>        -0.3658
     22 C15        -8.2365    3.4110   -6.3593 C.3       1 <0>         0.0532
     23 H2          0.7115   -1.6606    1.1939 H         1 <0>         0.0508
     24 H3          1.7550   -0.2189    1.2230 H         1 <0>         0.0506
     25 H4          0.2251   -0.2287    2.1327 H         1 <0>         0.0558
     26 H5         -1.0112   -0.4406   -0.0448 H         1 <0>         0.0678
     27 H6         -0.0750    1.0682    0.0787 H         1 <0>         0.0949
     28 H7          1.5013   -2.2838   -0.5426 H         1 <0>         0.0783
     29 H8         -0.1078   -2.3638   -1.3008 H         1 <0>         0.0664
     30 H9          2.5130   -1.8200   -2.7685 H         1 <0>         0.0647
     31 H10         1.6413   -3.3715   -2.7577 H         1 <0>         0.0666
     32 H11         1.0991   -2.0874   -4.7988 H         1 <0>         0.0759
     33 H12        -0.3406   -2.2502   -3.7638 H         1 <0>         0.0671
     34 H13         1.5007    0.1784   -3.9555 H         1 <0>         0.0705
     35 H14        -0.1807    0.0679   -4.5368 H         1 <0>         0.0752
     36 H15        -1.4549    1.0012   -4.2776 H         1 <0>         0.3931
     37 H16        -2.9073    2.6890   -2.3887 H         1 <0>         0.0948
     38 H17        -4.2778    0.3653   -3.8171 H         1 <0>         0.0688
     39 H18        -3.9508    0.4526   -2.0691 H         1 <0>         0.0855
     40 H19        -6.2968    1.1476   -2.6733 H         1 <0>         0.1002
     41 H20        -5.3736    2.4371   -1.8595 H         1 <0>         0.0783
     42 H21        -4.8277    4.1077   -5.2603 H         1 <0>         0.0990
     43 H22        -4.4163    4.3659   -3.5453 H         1 <0>         0.0775
     44 H23        -2.4526    3.4711   -4.7072 H         1 <0>         0.0865
     45 H24        -3.4109    2.1121   -5.3438 H         1 <0>         0.0736
     46 H25        -8.3796    2.3983   -6.7363 H         1 <0>         0.0608
     47 H26        -9.0432    3.6594   -5.6697 H         1 <0>         0.0615
     48 H27        -8.2420    4.1132   -7.1930 H         1 <0>         0.1042
@<TRIPOS>BOND
     1    1    2 1
     2    1   23 1
     3    1   24 1
     4    1   25 1
     5    2    3 1
     6    2   26 1
     7    2   27 1
     8    3    4 1
     9    3    9 1
    10    3    5 1
    11    5    6 1
    12    5   28 1
    13    5   29 1
    14    6    7 1
    15    6   30 1
    16    6   31 1
    17    7    8 1
    18    7   32 1
    19    7   33 1
    20    8    9 1
    21    8   34 1
    22    8   35 1
    23    9   10 am
    24   10   11 2
    25   10   12 am
    26   12   13 1
    27   12   36 1
    28   13   18 1
    29   13   14 1
    30   13   37 1
    31   14   15 1
    32   14   38 1
    33   14   39 1
    34   15   16 1
    35   15   40 1
    36   15   41 1
    37   16   17 1
    38   16   19 am
    39   17   18 1
    40   17   42 1
    41   17   43 1
    42   18   44 1
    43   18   45 1
    44   19   20 2
    45   19   21 1
    46   21   22 1
    47   22   46 1
    48   22   47 1
    49   22   48 1
@<TRIPOS>MOLECULE
ZINC12241629
   35    38     0     0     0
SMALL
USER_CHARGES
N-[(1S,6R)-norcaran-7-yl]-2,1,3-benzothiadiazole-4-sulfonamide
@<TRIPOS>ATOM
      1 C1          2.1367    2.7198   -4.7562 C.ar      1 <0>        -0.1282
      2 C2          1.0520    2.1146   -5.2962 C.ar      1 <0>        -0.0013
      3 C3          0.3165    1.1671   -4.5376 C.ar      1 <0>         0.0441
      4 C4          0.7626    0.8657   -3.1804 C.ar      1 <0>         0.1317
      5 C5          1.9048    1.5423   -2.6785 C.ar      1 <0>        -0.6343
      6 C6          2.5596    2.4360   -3.4576 C.ar      1 <0>         0.0404
      7 S1          2.4755    1.2141   -1.0441 S.o2      1 <0>         2.7013
      8 O1          3.6057    2.0492   -0.8332 O.2       1 <0>        -0.9579
      9 O2          2.5374   -0.1994   -0.9117 O.2       1 <0>        -0.9377
     10 N1          1.3000    1.7361   -0.0010 N.pl3     1 <0>        -1.0805
     11 C7         -0.0127    1.0858    0.0080 C.3       1 <0>         0.0923
     12 C8         -1.1572    1.7999   -0.6991 C.3       1 <0>        -0.1493
     13 H1         -1.8994    1.1573   -1.1728 H         1 <0>         0.0987
     14 C9         -1.1309    1.7540    0.8230 C.3       1 <0>        -0.1345
     15 H2         -1.8482    1.0977    1.3158 H         1 <0>         0.1139
     16 C10        -0.7309    2.9869    1.6274 C.3       1 <0>        -0.0943
     17 C11        -0.9123    4.2496    0.7849 C.3       1 <0>        -0.1192
     18 C12        -0.1324    4.0798   -0.5239 C.3       1 <0>        -0.1322
     19 C13        -0.8977    3.1107   -1.4250 C.3       1 <0>        -0.0885
     20 N2         -0.0192   -0.0327   -2.5851 N.2       1 <0>        -0.5472
     21 S2         -1.1238   -0.4127   -3.6296 S.3       1 <0>         0.7668
     22 N3         -0.7650    0.4677   -4.8752 N.2       1 <0>        -0.5388
     23 H3          2.6872    3.4386   -5.3449 H         1 <0>         0.1516
     24 H4          0.7468    2.3529   -6.3044 H         1 <0>         0.1495
     25 H5          3.4297    2.9405   -3.0642 H         1 <0>         0.1594
     26 H6          1.4806    2.4725    0.6040 H         1 <0>         0.4188
     27 H7          0.0015   -0.0034   -0.0295 H         1 <0>         0.1419
     28 H8          0.3136    2.8987    1.9261 H         1 <0>         0.0664
     29 H9         -1.3567    3.0534    2.5174 H         1 <0>         0.0726
     30 H10        -0.5285    5.1117    1.3304 H         1 <0>         0.0660
     31 H11        -1.9700    4.3938    0.5646 H         1 <0>         0.0663
     32 H12         0.8576    3.6767   -0.3103 H         1 <0>         0.0701
     33 H13        -0.0350    5.0440   -1.0227 H         1 <0>         0.0651
     34 H14        -0.3112    2.9148   -2.3227 H         1 <0>         0.0609
     35 H15        -1.8498    3.5592   -1.7089 H         1 <0>         0.0660
@<TRIPOS>BOND
     1    1    6 ar
     2    1    2 ar
     3    1   23 1
     4    2    3 ar
     5    2   24 1
     6    3   22 2
     7    3    4 ar
     8    4    5 ar
     9    4   20 2
    10    5    6 ar
    11    5    7 1
    12    6   25 1
    13    7    8 2
    14    7    9 2
    15    7   10 1
    16   10   11 1
    17   10   26 1
    18   11   14 1
    19   11   12 1
    20   11   27 1
    21   12   13 1
    22   12   19 1
    23   12   14 1
    24   14   15 1
    25   14   16 1
    26   16   17 1
    27   16   28 1
    28   16   29 1
    29   17   18 1
    30   17   30 1
    31   17   31 1
    32   18   19 1
    33   18   32 1
    34   18   33 1
    35   19   34 1
    36   19   35 1
    37   20   21 1
    38   21   22 1
@<TRIPOS>MOLECULE
ZINC31918330
   39    41     0     0     0
SMALL
USER_CHARGES
6-chloro-3-[(4-methyl-1-piperidyl)methyl]imidazo[1,2-a]pyridine-2-carboxylic acid
@<TRIPOS>ATOM
      1 C1         -2.9291   -2.7111    5.1312 C.3       1 <0>        -0.1533
      2 C2         -2.6758   -2.3761    3.6600 C.3       1 <0>        -0.1022
      3 C3         -4.0103   -2.3168    2.9116 C.3       1 <0>        -0.1431
      4 C4         -3.7557   -1.9218    1.4552 C.3       1 <0>        -0.0005
      5 N1         -3.0905   -0.6134    1.4107 N.4       1 <0>        -0.3968
      6 C5         -1.7853   -0.6581    2.0822 C.3       1 <0>        -0.0086
      7 C6         -1.9811   -1.0154    3.5573 C.3       1 <0>        -0.1404
      8 C7         -2.9547   -0.1386    0.0272 C.3       1 <0>         0.0976
      9 C8         -2.4981    1.2976    0.0314 C.2       1 <0>        -0.1276
     10 C9         -3.2997    2.4043    0.0447 C.2       1 <0>         0.1066
     11 N2         -2.5094    3.4941    0.0433 N.2       1 <0>        -0.4306
     12 C10        -1.2444    3.1090    0.0297 C.2       1 <0>         0.2333
     13 N3         -1.2095    1.7369    0.0172 N.pl3     1 <0>        -0.3538
     14 C11        -0.0126    1.0758    0.0080 C.2       1 <0>         0.0427
     15 C12         1.1505    1.7600    0.0005 C.2       1 <0>        -0.0457
     16 C13         1.1468    3.1666    0.0081 C.2       1 <0>        -0.0999
     17 C14        -0.0348    3.8373    0.0225 C.2       1 <0>        -0.0463
     18 Cl1         2.6584    0.9002   -0.0179 Cl        1 <0>        -0.0284
     19 C15        -4.7741    2.4048    0.0589 C.2       1 <0>         0.5173
     20 O1         -5.3820    1.3526    0.0592 O.co2     1 <0>        -0.6324
     21 O2         -5.4474    3.5720    0.0716 O.co2     1 <0>        -0.6922
     22 H1         -3.4281   -3.6887    5.2040 H         1 <0>         0.0655
     23 H2         -3.5709   -1.9376    5.5781 H         1 <0>         0.0628
     24 H3         -1.9703   -2.7479    5.6692 H         1 <0>         0.0637
     25 H4         -2.0362   -3.1531    3.2159 H         1 <0>         0.0851
     26 H5         -4.4943   -3.3040    2.9464 H         1 <0>         0.1099
     27 H6         -4.6643   -1.5708    3.3867 H         1 <0>         0.0913
     28 H7         -3.1128   -2.6759    0.9778 H         1 <0>         0.1198
     29 H8         -4.7139   -1.8639    0.9181 H         1 <0>         0.1389
     30 H9         -1.1519   -1.4186    1.6021 H         1 <0>         0.1199
     31 H10        -1.2994    0.3257    2.0051 H         1 <0>         0.1156
     32 H11        -2.6029   -0.2487    4.0427 H         1 <0>         0.0893
     33 H12        -1.0026   -1.0646    4.0575 H         1 <0>         0.1069
     34 H13        -2.2146   -0.7571   -0.5017 H         1 <0>         0.1170
     35 H14        -3.9264   -0.2129   -0.4830 H         1 <0>         0.1739
     36 H15         0.0021   -0.0041    0.0020 H         1 <0>         0.1653
     37 H16         2.0794    3.7112    0.0021 H         1 <0>         0.1583
     38 H17        -0.0486    4.9172    0.0288 H         1 <0>         0.1694
     39 H18        -3.7233    0.1030    1.9551 H         1 <0>         0.4518
@<TRIPOS>BOND
     1    1    2 1
     2    1   22 1
     3    1   23 1
     4    1   24 1
     5    2    7 1
     6    2    3 1
     7    2   25 1
     8    3    4 1
     9    3   26 1
    10    3   27 1
    11    4    5 1
    12    4   28 1
    13    4   29 1
    14    5    6 1
    15    5    8 1
    16    5   39 1
    17    6    7 1
    18    6   30 1
    19    6   31 1
    20    7   32 1
    21    7   33 1
    22    8    9 1
    23    8   34 1
    24    8   35 1
    25    9   13 1
    26    9   10 2
    27   10   11 1
    28   10   19 1
    29   11   12 2
    30   12   17 1
    31   12   13 1
    32   13   14 1
    33   14   15 2
    34   14   36 1
    35   15   16 1
    36   15   18 1
    37   16   17 2
    38   16   37 1
    39   17   38 1
    40   19   20 2
    41   19   21 1
@<TRIPOS>MOLECULE
ZINC45154245
   42    44     0     0     0
SMALL
USER_CHARGES

@<TRIPOS>ATOM
      1 C1         -0.0276    1.5266    0.0185 C.3       1 <0>        -0.1366
      2 C2         -0.0046   -0.0031    0.0074 C.3       1 <0>         0.1272
      3 H1          0.4221   -0.3570   -0.9311 H         1 <0>         0.0804
      4 C3         -1.4314   -0.5421    0.1615 C.3       1 <0>         0.0492
      5 O1         -1.3826   -1.9601    0.3366 O.3       1 <0>        -0.3768
      6 C4         -0.6939   -2.3807    1.5167 C.3       1 <0>         0.0482
      7 C5          0.7706   -1.9360    1.4319 C.3       1 <0>         0.0751
      8 N1          0.8024   -0.4949    1.1353 N.am      1 <0>        -0.6286
      9 C6          1.5478    0.3497    1.8753 C.2       1 <0>         0.7136
     10 O2          1.4942    1.5469    1.6701 O.2       1 <0>        -0.5714
     11 N2          2.3525   -0.1329    2.8428 N.am      1 <0>        -0.7395
     12 C7          3.0769    0.7894    3.7207 C.3       1 <0>         0.2934
     13 H2          3.3702    1.6741    3.1556 H         1 <0>         0.1269
     14 C8          4.3076    0.1072    4.2602 C.ar      1 <0>        -0.0995
     15 C9          4.2519   -1.2214    4.6379 C.ar      1 <0>        -0.1056
     16 C10         5.3808   -1.8471    5.1328 C.ar      1 <0>        -0.1159
     17 C11         6.5655   -1.1445    5.2495 C.ar      1 <0>        -0.1115
     18 C12         6.6214    0.1839    4.8710 C.ar      1 <0>        -0.1150
     19 C13         5.4936    0.8085    4.3721 C.ar      1 <0>        -0.0982
     20 C14         2.1860    1.1973    4.8657 C.2       1 <0>        -0.0221
     21 C15         2.0949    2.4326    5.3902 C.2       1 <0>        -0.1905
     22 C16         1.1470    2.3644    6.4369 C.2       1 <0>        -0.2112
     23 C17         0.7155    1.0914    6.4895 C.2       1 <0>        -0.0412
     24 O3          1.3440    0.3904    5.5317 O.3       1 <0>        -0.1704
     25 H3          0.9752    1.9065   -0.1771 H         1 <0>         0.0797
     26 H4         -0.7090    1.8854   -0.7529 H         1 <0>         0.0489
     27 H5         -0.3654    1.8779    0.9935 H         1 <0>         0.0710
     28 H6         -1.9017   -0.0838    1.0315 H         1 <0>         0.0576
     29 H7         -2.0086   -0.3052   -0.7323 H         1 <0>         0.1088
     30 H8         -1.1615   -1.9291    2.3916 H         1 <0>         0.0570
     31 H9         -0.7405   -3.4667    1.5978 H         1 <0>         0.1086
     32 H10         1.2676   -2.1261    2.3832 H         1 <0>         0.0850
     33 H11         1.2756   -2.4850    0.6372 H         1 <0>         0.0811
     34 H12         2.4520   -1.0909    2.9579 H         1 <0>         0.3969
     35 H13         3.3263   -1.7703    4.5467 H         1 <0>         0.1188
     36 H14         5.3371   -2.8849    5.4285 H         1 <0>         0.1260
     37 H15         7.4473   -1.6332    5.6368 H         1 <0>         0.1256
     38 H16         7.5469    0.7329    4.9625 H         1 <0>         0.1277
     39 H17         5.5383    1.8452    4.0729 H         1 <0>         0.1278
     40 H18         2.6415    3.3084    5.0729 H         1 <0>         0.1484
     41 H19         0.8304    3.1780    7.0726 H         1 <0>         0.1490
     42 H20        -0.0153    0.7003    7.1819 H         1 <0>         0.2020
@<TRIPOS>BOND
     1    1    2 1
     2    1   25 1
     3    1   26 1
     4    1   27 1
     5    2    3 1
     6    2    8 1
     7    2    4 1
     8    4    5 1
     9    4   28 1
    10    4   29 1
    11    5    6 1
    12    6    7 1
    13    6   30 1
    14    6   31 1
    15    7    8 1
    16    7   32 1
    17    7   33 1
    18    8    9 am
    19    9   10 2
    20    9   11 am
    21   11   12 1
    22   11   34 1
    23   12   13 1
    24   12   14 1
    25   12   20 1
    26   14   19 ar
    27   14   15 ar
    28   15   16 ar
    29   15   35 1
    30   16   17 ar
    31   16   36 1
    32   17   18 ar
    33   17   37 1
    34   18   19 ar
    35   18   38 1
    36   19   39 1
    37   20   24 1
    38   20   21 2
    39   21   22 1
    40   21   40 1
    41   22   23 2
    42   22   41 1
    43   23   24 1
    44   23   42 1
@<TRIPOS>MOLECULE
ZINC43879145
   36    37     0     0     0
SMALL
USER_CHARGES

@<TRIPOS>ATOM
      1 C1         -0.6689    1.2264    0.4075 C.3       1 <0>        -0.1450
      2 C2         -0.3981   -0.2762    0.3094 C.3       1 <0>         0.0723
      3 H1         -1.3355   -0.8226    0.4138 H         1 <0>         0.0653
      4 C3          0.2318   -0.5952   -1.0513 C.3       1 <0>         0.0991
      5 N1          0.6528   -2.0052   -1.0487 N.am      1 <0>        -0.6270
      6 C4          1.4708   -2.4807    0.0783 C.3       1 <0>         0.0713
      7 C5          0.7806   -2.0698    1.3840 C.3       1 <0>         0.0495
      8 O1          0.5014   -0.6682    1.3491 O.3       1 <0>        -0.3734
      9 C6          0.2992   -2.8367   -2.0487 C.2       1 <0>         0.7124
     10 O2         -0.4533   -2.4512   -2.9225 O.2       1 <0>        -0.5644
     11 N2          0.7798   -4.0955   -2.0802 N.am      1 <0>        -0.6760
     12 C7          0.4887   -4.9298   -3.1683 C.ar      1 <0>         0.1708
     13 C8          0.0379   -4.3847   -4.3615 C.ar      1 <0>        -0.1121
     14 C9         -0.2486   -5.2093   -5.4329 C.ar      1 <0>        -0.1082
     15 C10        -0.0871   -6.5778   -5.3190 C.ar      1 <0>        -0.1017
     16 C11         0.3618   -7.1283   -4.1329 C.ar      1 <0>        -0.1653
     17 C12         0.6567   -6.3079   -3.0560 C.ar      1 <0>         0.0630
     18 O3          1.1036   -6.8474   -1.8905 O.3       1 <0>        -0.3187
     19 C13         1.2519   -8.2680   -1.8480 C.3       1 <0>         0.6071
     20 F1          2.1691   -8.6706   -2.8247 F         1 <0>        -0.1632
     21 F2          1.7171   -8.6507   -0.5854 F         1 <0>        -0.1305
     22 F3          0.0147   -8.8736   -2.0924 F         1 <0>        -0.1628
     23 H2          0.2689    1.7722    0.3031 H         1 <0>         0.0678
     24 H3         -1.3533    1.5249   -0.3866 H         1 <0>         0.0770
     25 H4         -1.1151    1.4528    1.3759 H         1 <0>         0.0700
     26 H5         -0.5005   -0.4322   -1.8420 H         1 <0>         0.1070
     27 H6          1.0978    0.0462   -1.2143 H         1 <0>         0.0799
     28 H7          1.5591   -3.5663    0.0356 H         1 <0>         0.0860
     29 H8          2.4616   -2.0291    0.0290 H         1 <0>         0.0860
     30 H9         -0.1521   -2.6235    1.4926 H         1 <0>         0.0578
     31 H10         1.4357   -2.2897    2.2270 H         1 <0>         0.1114
     32 H11         1.3273   -4.4240   -1.3500 H         1 <0>         0.4112
     33 H12        -0.0895   -3.3162   -4.4531 H         1 <0>         0.1750
     34 H13        -0.5999   -4.7838   -6.3613 H         1 <0>         0.1360
     35 H14        -0.3125   -7.2185   -6.1587 H         1 <0>         0.1350
     36 H15         0.4869   -8.1976   -4.0472 H         1 <0>         0.1373
@<TRIPOS>BOND
     1    1    2 1
     2    1   23 1
     3    1   24 1
     4    1   25 1
     5    2    3 1
     6    2    8 1
     7    2    4 1
     8    4    5 1
     9    4   26 1
    10    4   27 1
    11    5    6 1
    12    5    9 am
    13    6    7 1
    14    6   28 1
    15    6   29 1
    16    7    8 1
    17    7   30 1
    18    7   31 1
    19    9   10 2
    20    9   11 am
    21   11   12 1
    22   11   32 1
    23   12   17 ar
    24   12   13 ar
    25   13   14 ar
    26   13   33 1
    27   14   15 ar
    28   14   34 1
    29   15   16 ar
    30   15   35 1
    31   16   17 ar
    32   16   36 1
    33   17   18 1
    34   18   19 1
    35   19   20 1
    36   19   21 1
    37   19   22 1
@<TRIPOS>MOLECULE
ZINC64286608
   34    36     0     0     0
SMALL
USER_CHARGES

@<TRIPOS>ATOM
      1 C1         -0.0219    1.4949    0.0054 C.3       1 <0>        -0.1187
      2 C2         -0.0098   -0.0121    0.0022 C.ar      1 <0>        -0.0953
      3 C3         -0.0160   -0.6984   -1.1979 C.ar      1 <0>        -0.0941
      4 C4         -0.0055   -2.0781   -1.2091 C.ar      1 <0>        -0.0986
      5 C5          0.0118   -2.7862   -0.0053 C.ar      1 <0>        -0.0030
      6 C6          0.0185   -2.0938    1.2054 C.ar      1 <0>        -0.1101
      7 C7          0.0131   -0.7072    1.2057 C.ar      1 <0>         0.1476
      8 N1          0.0250   -0.0084    2.4164 N.am      1 <0>        -0.6477
      9 C8          0.5317   -0.5867    3.5234 C.2       1 <0>         0.5951
     10 O1          1.0690   -1.6753    3.4491 O.2       1 <0>        -0.4966
     11 C9          0.4348    0.0986    4.8211 C.2       1 <0>         0.0253
     12 N2         -0.1103    1.2566    5.0714 N.2       1 <0>        -0.2406
     13 N3         -0.0530    1.6119    6.2946 N.2       1 <0>        -0.3060
     14 C10         0.5372    0.7603    7.0770 C.2       1 <0>         0.1029
     15 C11         0.9420   -0.3893    6.1686 C.3       1 <0>        -0.1632
     16 C12         0.0226   -4.2638   -0.0144 C.2       1 <0>        -0.0817
     17 C13         0.0237   -5.1266   -1.0971 C.2       1 <0>        -0.1608
     18 C14         0.0346   -6.4744   -0.8648 C.2       1 <0>        -0.0715
     19 C15         0.0443   -6.9233    0.4478 C.2       1 <0>        -0.1381
     20 S1          0.0454   -5.3933    1.3678 S.3       1 <0>         0.1693
     21 C16         0.0558   -8.2685    0.9387 C.1       1 <0>         0.2924
     22 N4          0.0649   -9.3356    1.3282 N.1       1 <0>        -0.3945
     23 H1          1.0028    1.8664   -0.0086 H         1 <0>         0.0781
     24 H2         -0.5514    1.8559   -0.8762 H         1 <0>         0.0781
     25 H3         -0.5257    1.8523    0.9035 H         1 <0>         0.0639
     26 H4         -0.0294   -0.1528   -2.1298 H         1 <0>         0.1373
     27 H5         -0.0111   -2.6106   -2.1487 H         1 <0>         0.1336
     28 H6          0.0315   -2.6358    2.1395 H         1 <0>         0.1501
     29 H7         -0.3314    0.8927    2.4598 H         1 <0>         0.4229
     30 H8          0.7012    0.8479    8.1409 H         1 <0>         0.2127
     31 H9          0.4462   -1.3148    6.4616 H         1 <0>         0.1569
     32 H10         2.0248   -0.5142    6.1572 H         1 <0>         0.1565
     33 H11         0.0156   -4.7426   -2.1065 H         1 <0>         0.1491
     34 H12         0.0354   -7.1751   -1.6866 H         1 <0>         0.1485
@<TRIPOS>BOND
     1    1    2 1
     2    1   23 1
     3    1   24 1
     4    1   25 1
     5    2    7 ar
     6    2    3 ar
     7    3    4 ar
     8    3   26 1
     9    4    5 ar
    10    4   27 1
    11    5    6 ar
    12    5   16 1
    13    6    7 ar
    14    6   28 1
    15    7    8 1
    16    8    9 am
    17    8   29 1
    18    9   10 2
    19    9   11 1
    20   11   15 1
    21   11   12 2
    22   12   13 1
    23   13   14 2
    24   14   15 1
    25   14   30 1
    26   15   31 1
    27   15   32 1
    28   16   20 1
    29   16   17 2
    30   17   18 1
    31   17   33 1
    32   18   19 2
    33   18   34 1
    34   19   20 1
    35   19   21 1
    36   21   22 3
@<TRIPOS>MOLECULE
ZINC04672137
   53    56     0     0     0
SMALL
USER_CHARGES
N-(2,3-dimethylcyclohexyl)-methyl-BLAHcarboxamide
@<TRIPOS>ATOM
      1 C1          3.7107   -0.6666   -0.0440 C.3       1 <0>        -0.1233
      2 C2          2.3798    0.0400   -0.0255 C.2       1 <0>         0.1921
      3 C3          1.2218   -0.6781   -0.0197 C.2       1 <0>        -0.1777
      4 C4          0.0021   -0.0041    0.0020 C.2       1 <0>         0.2303
      5 N1         -0.0158    1.3173    0.0093 N.2       1 <0>        -0.4568
      6 C5          1.1116    2.0254    0.0023 C.2       1 <0>         0.3334
      7 N2          2.3260    1.4000   -0.0140 N.pl3     1 <0>        -0.3040
      8 N3          3.3216    2.3829   -0.0153 N.2       1 <0>        -0.3125
      9 C6          2.7669    3.5662   -0.0030 C.2       1 <0>         0.1291
     10 C7          1.3693    3.4097    0.0085 C.2       1 <0>        -0.3033
     11 C8          0.3711    4.4830    0.0244 C.2       1 <0>         0.5985
     12 O1         -0.8151    4.2108    0.0338 O.2       1 <0>        -0.5290
     13 N4          0.7669    5.7714    0.0287 N.am      1 <0>        -0.7285
     14 C9         -0.2307    6.8441    0.0446 C.3       1 <0>         0.1558
     15 H1         -1.0891    6.5332    0.6402 H         1 <0>         0.0876
     16 C10        -0.6834    7.1408   -1.3864 C.3       1 <0>        -0.1306
     17 C11        -1.7253    8.2611   -1.3698 C.3       1 <0>        -0.1171
     18 C12        -1.1096    9.5211   -0.7581 C.3       1 <0>        -0.1181
     19 C13        -0.6569    9.2244    0.6730 C.3       1 <0>        -0.0839
     20 H2         -1.5152    8.9135    1.2685 H         1 <0>         0.0723
     21 C14         0.3850    8.1041    0.6564 C.3       1 <0>        -0.0930
     22 H3          0.7075    7.8927    1.6759 H         1 <0>         0.0755
     23 C15         1.5899    8.5405   -0.1795 C.3       1 <0>        -0.1554
     24 C16        -0.0412   10.4844    1.2848 C.3       1 <0>        -0.1494
     25 C17        -1.3178   -0.7292    0.0255 C.3       1 <0>        -0.0760
     26 C18        -1.1390   -2.1794   -0.4197 C.3       1 <0>        -0.1211
     27 C19        -0.0054   -2.8051    0.4009 C.3       1 <0>        -0.1233
     28 C20         1.3162   -2.1801   -0.0431 C.3       1 <0>        -0.0662
     29 H4          4.0215   -0.8290   -1.0761 H         1 <0>         0.0974
     30 H5          4.4540   -0.0549    0.4673 H         1 <0>         0.0906
     31 H6          3.6193   -1.6270    0.4634 H         1 <0>         0.1001
     32 H7          3.2946    4.5085   -0.0010 H         1 <0>         0.2017
     33 H8          1.7123    5.9883    0.0213 H         1 <0>         0.3940
     34 H9          0.1750    7.4517   -1.9819 H         1 <0>         0.0657
     35 H10        -1.1220    6.2432   -1.8222 H         1 <0>         0.0667
     36 H11        -2.5836    7.9502   -0.7743 H         1 <0>         0.0639
     37 H12        -2.0478    8.4725   -2.3893 H         1 <0>         0.0641
     38 H13        -1.8518   10.3193   -0.7462 H         1 <0>         0.0629
     39 H14        -0.2512    9.8320   -1.3536 H         1 <0>         0.0661
     40 H15         1.2673    8.7519   -1.1990 H         1 <0>         0.0655
     41 H16         2.0285    9.4381    0.2563 H         1 <0>         0.0623
     42 H17         2.3321    7.7424   -0.1914 H         1 <0>         0.0501
     43 H18         0.8172   10.7953    0.6892 H         1 <0>         0.0585
     44 H19        -0.7834   11.2826    1.2966 H         1 <0>         0.0554
     45 H20         0.2813   10.2730    2.3043 H         1 <0>         0.0543
     46 H21        -1.7214   -0.7102    1.0379 H         1 <0>         0.0994
     47 H22        -2.0155   -0.2294   -0.6466 H         1 <0>         0.0991
     48 H23        -0.8833   -2.2084   -1.4789 H         1 <0>         0.0713
     49 H24        -2.0629   -2.7317   -0.2481 H         1 <0>         0.0825
     50 H25         0.0217   -3.8809    0.2273 H         1 <0>         0.0798
     51 H26        -0.1670   -2.6060    1.4603 H         1 <0>         0.0710
     52 H27         1.5492   -2.5108   -1.0553 H         1 <0>         0.0865
     53 H28         2.1110   -2.5017    0.6298 H         1 <0>         0.0858
@<TRIPOS>BOND
     1    1    2 1
     2    1   29 1
     3    1   30 1
     4    1   31 1
     5    2    7 1
     6    2    3 2
     7    3   28 1
     8    3    4 1
     9    4    5 2
    10    4   25 1
    11    5    6 1
    12    6   10 2
    13    6    7 1
    14    7    8 1
    15    8    9 2
    16    9   10 1
    17    9   32 1
    18   10   11 1
    19   11   12 2
    20   11   13 am
    21   13   14 1
    22   13   33 1
    23   14   15 1
    24   14   21 1
    25   14   16 1
    26   16   17 1
    27   16   34 1
    28   16   35 1
    29   17   18 1
    30   17   36 1
    31   17   37 1
    32   18   19 1
    33   18   38 1
    34   18   39 1
    35   19   20 1
    36   19   21 1
    37   19   24 1
    38   21   22 1
    39   21   23 1
    40   23   40 1
    41   23   41 1
    42   23   42 1
    43   24   43 1
    44   24   44 1
    45   24   45 1
    46   25   26 1
    47   25   46 1
    48   25   47 1
    49   26   27 1
    50   26   48 1
    51   26   49 1
    52   27   28 1
    53   27   50 1
    54   27   51 1
    55   28   52 1
    56   28   53 1
@<TRIPOS>MOLECULE
ZINC10962488
   43    45     0     0     0
SMALL
USER_CHARGES
N-(4-fluoro-2-methyl-phenyl)-9-isopropyl-3-methyl-2,8,9-triazabicyclo[4.3.0]nona-1,3,5,7-tetraene-5-carboxamide
@<TRIPOS>ATOM
      1 C1         -2.3652    3.5833    1.2915 C.3       1 <0>        -0.1192
      2 C2         -1.1508    3.0009    0.6154 C.ar      1 <0>        -0.0848
      3 C3          0.0355    3.7082    0.5966 C.ar      1 <0>        -0.1339
      4 C4          1.1516    3.1735   -0.0244 C.ar      1 <0>         0.0877
      5 C5          1.0814    1.9285   -0.6271 C.ar      1 <0>        -0.1362
      6 C6         -0.1025    1.2181   -0.6107 C.ar      1 <0>        -0.0964
      7 C7         -1.2251    1.7553    0.0063 C.ar      1 <0>         0.1348
      8 N1         -2.4276    1.0399    0.0187 N.am      1 <0>        -0.6582
      9 C8         -2.4137   -0.3034   -0.0909 C.2       1 <0>         0.5617
     10 O1         -1.3555   -0.9016   -0.0993 O.2       1 <0>        -0.4981
     11 C9         -3.6853   -1.0491   -0.2008 C.ar      1 <0>        -0.0087
     12 C10        -4.9114   -0.3870   -0.1878 C.ar      1 <0>        -0.1783
     13 C11        -6.0820   -1.1216   -0.2981 C.ar      1 <0>         0.1972
     14 N2         -6.0672   -2.4320   -0.4053 N.ar      1 <0>        -0.4834
     15 C12        -4.9361   -3.1223   -0.4189 C.ar      1 <0>         0.3164
     16 C13        -3.6976   -2.4568   -0.3167 C.ar      1 <0>        -0.1830
     17 C14        -2.6905   -3.4443   -0.3590 C.2       1 <0>         0.0906
     18 N3         -3.2576   -4.6109   -0.4764 N.2       1 <0>        -0.2285
     19 N4         -4.6486   -4.4590   -0.5174 N.pl3     1 <0>        -0.3789
     20 C15        -5.6278   -5.5413   -0.6438 C.3       1 <0>         0.1635
     21 C16        -5.3847   -6.2989   -1.9507 C.3       1 <0>        -0.1624
     22 C17        -5.4811   -6.5023    0.5377 C.3       1 <0>        -0.1624
     23 C18        -7.4052   -0.4004   -0.2893 C.3       1 <0>        -0.1086
     24 F1          2.3108    3.8671   -0.0420 F         1 <0>        -0.1383
     25 H1         -2.9369    4.1681    0.5708 H         1 <0>         0.0783
     26 H2         -2.9870    2.7765    1.6796 H         1 <0>         0.0669
     27 H3         -2.0502    4.2266    2.1131 H         1 <0>         0.0783
     28 H4          0.0925    4.6790    1.0664 H         1 <0>         0.1408
     29 H5          1.9532    1.5132   -1.1106 H         1 <0>         0.1405
     30 H6         -0.1569    0.2475   -1.0811 H         1 <0>         0.1564
     31 H7         -3.2711    1.5107    0.1061 H         1 <0>         0.4134
     32 H8         -4.9492    0.6885   -0.0960 H         1 <0>         0.1447
     33 H9         -1.6273   -3.2631   -0.3029 H         1 <0>         0.2057
     34 H10        -6.6340   -5.1222   -0.6486 H         1 <0>         0.1085
     35 H11        -5.4892   -5.6143   -2.7924 H         1 <0>         0.0598
     36 H12        -4.3785   -6.7180   -1.9459 H         1 <0>         0.0710
     37 H13        -6.1132   -7.1042   -2.0447 H         1 <0>         0.0785
     38 H14        -5.6543   -5.9625    1.4687 H         1 <0>         0.0598
     39 H15        -6.2097   -7.3076    0.4436 H         1 <0>         0.0785
     40 H16        -4.4749   -6.9213    0.5424 H         1 <0>         0.0710
     41 H17        -7.7633   -0.3108    0.7362 H         1 <0>         0.0875
     42 H18        -7.2800    0.5936   -0.7187 H         1 <0>         0.0838
     43 H19        -8.1292   -0.9625   -0.8792 H         1 <0>         0.0839
@<TRIPOS>BOND
     1    1    2 1
     2    1   25 1
     3    1   26 1
     4    1   27 1
     5    2    7 ar
     6    2    3 ar
     7    3    4 ar
     8    3   28 1
     9    4    5 ar
    10    4   24 1
    11    5    6 ar
    12    5   29 1
    13    6    7 ar
    14    6   30 1
    15    7    8 1
    16    8    9 am
    17    8   31 1
    18    9   10 2
    19    9   11 1
    20   11   16 ar
    21   11   12 ar
    22   12   13 ar
    23   12   32 1
    24   13   14 ar
    25   13   23 1
    26   14   15 ar
    27   15   19 1
    28   15   16 ar
    29   16   17 1
    30   17   18 2
    31   17   33 1
    32   18   19 1
    33   19   20 1
    34   20   21 1
    35   20   22 1
    36   20   34 1
    37   21   35 1
    38   21   36 1
    39   21   37 1
    40   22   38 1
    41   22   39 1
    42   22   40 1
    43   23   41 1
    44   23   42 1
    45   23   43 1
@<TRIPOS>MOLECULE
ZINC29002863
   48    51     0     0     0
SMALL
USER_CHARGES
5,5-dimethyl-2-[(spiro[1,3-benzodioxole-2,1'-cyclopentane]-5-ylamino)methylene]cyclohexane-1,3-dione
@<TRIPOS>ATOM
      1 C1          7.6293    7.7913    8.9179 C.3       1 <0>        -0.1443
      2 C2          7.2327    6.9833    7.6807 C.3       1 <0>        -0.0532
      3 C3          8.4930    6.5450    6.9308 C.3       1 <0>        -0.1562
      4 C4          8.1009    5.7248    5.7294 C.2       1 <0>         0.4243
      5 O1          8.8041    5.7289    4.7400 O.2       1 <0>        -0.4975
      6 C5          6.9156    4.9491    5.7483 C.2       1 <0>        -0.4442
      7 C6          6.5682    4.1958    4.6337 C.2       1 <0>         0.3110
      8 N1          5.5202    3.3537    4.6907 N.pl3     1 <0>        -0.6020
      9 C7          5.1183    2.6586    3.5452 C.ar      1 <0>         0.1440
     10 C8          5.8010    2.8381    2.3488 C.ar      1 <0>        -0.1517
     11 C9          5.4054    2.1530    1.2156 C.ar      1 <0>        -0.0639
     12 C10         4.3281    1.2863    1.2706 C.ar      1 <0>         0.0140
     13 C11         3.6405    1.1031    2.4711 C.ar      1 <0>         0.0654
     14 C12         4.0363    1.7892    3.6043 C.ar      1 <0>        -0.1262
     15 O2          2.6283    0.2029    2.2554 O.3       1 <0>        -0.2818
     16 C13         2.4351    0.2423    0.8393 C.3       1 <0>         0.2448
     17 O3          3.7391    0.5003    0.3122 O.3       1 <0>        -0.2874
     18 C14         1.4238    1.3189    0.4257 C.3       1 <0>        -0.1594
     19 C15         0.0529    0.6186    0.5602 C.3       1 <0>        -0.1186
     20 C16         0.3206   -0.8957    0.4803 C.3       1 <0>        -0.1186
     21 C17         1.8458   -1.0673    0.3007 C.3       1 <0>        -0.1125
     22 C18         6.0782    4.9388    6.8910 C.2       1 <0>         0.4261
     23 O4          5.0622    4.2744    6.8890 O.2       1 <0>        -0.5113
     24 C19         6.4451    5.7434    8.1108 C.3       1 <0>        -0.1525
     25 C20         6.3662    7.8472    6.7623 C.3       1 <0>        -0.1540
     26 H1          8.1953    8.6822    8.6081 H         1 <0>         0.0626
     27 H2          8.2545    7.1704    9.5764 H         1 <0>         0.0602
     28 H3          6.7233    8.1022    9.4587 H         1 <0>         0.0613
     29 H4          9.0519    7.4337    6.6023 H         1 <0>         0.0978
     30 H5          9.1250    5.9404    7.5979 H         1 <0>         0.1010
     31 H6          7.1499    4.2878    3.7046 H         1 <0>         0.1728
     32 H7          4.9795    3.2119    5.6381 H         1 <0>         0.4556
     33 H8          6.6419    3.5144    2.3040 H         1 <0>         0.1460
     34 H9          5.9377    2.2938    0.2865 H         1 <0>         0.1461
     35 H10         3.5052    1.6492    4.5342 H         1 <0>         0.1439
     36 H11         1.5140    2.1845    1.0985 H         1 <0>         0.0792
     37 H12         1.6272    1.6352   -0.6080 H         1 <0>         0.0958
     38 H13        -0.4020    0.8854    1.5256 H         1 <0>         0.0731
     39 H14        -0.6066    0.9433   -0.2581 H         1 <0>         0.0766
     40 H15        -0.0212   -1.3779    1.4080 H         1 <0>         0.0760
     41 H16        -0.2247   -1.3198   -0.3757 H         1 <0>         0.0795
     42 H17         2.1268   -1.1886   -0.7559 H         1 <0>         0.1013
     43 H18         2.2384   -1.9133    0.8840 H         1 <0>         0.0904
     44 H19         7.0637    5.1312    8.7834 H         1 <0>         0.1050
     45 H20         5.5299    6.0543    8.6359 H         1 <0>         0.0981
     46 H21         6.0815    7.2656    5.8731 H         1 <0>         0.0589
     47 H22         6.9343    8.7367    6.4523 H         1 <0>         0.0632
     48 H23         5.4599    8.1604    7.3013 H         1 <0>         0.0612
@<TRIPOS>BOND
     1    1    2 1
     2    1   26 1
     3    1   27 1
     4    1   28 1
     5    2   24 1
     6    2    3 1
     7    2   25 1
     8    3    4 1
     9    3   29 1
    10    3   30 1
    11    4    5 2
    12    4    6 1
    13    6    7 2
    14    6   22 1
    15    7    8 1
    16    7   31 1
    17    8    9 1
    18    8   32 1
    19    9   14 ar
    20    9   10 ar
    21   10   11 ar
    22   10   33 1
    23   11   12 ar
    24   11   34 1
    25   12   17 1
    26   12   13 ar
    27   13   14 ar
    28   13   15 1
    29   14   35 1
    30   15   16 1
    31   16   21 1
    32   16   17 1
    33   16   18 1
    34   18   19 1
    35   18   36 1
    36   18   37 1
    37   19   20 1
    38   19   38 1
    39   19   39 1
    40   20   21 1
    41   20   40 1
    42   20   41 1
    43   21   42 1
    44   21   43 1
    45   22   23 2
    46   22   24 1
    47   24   44 1
    48   24   45 1
    49   25   46 1
    50   25   47 1
    51   25   48 1
@<TRIPOS>MOLECULE
ZINC48694022
   33    35     0     0     0
SMALL
USER_CHARGES

@<TRIPOS>ATOM
      1 C1         -0.0167    1.3782    0.0096 C.ar      1 <0>        -0.0958
      2 C2          1.1707    2.0857    0.0021 C.ar      1 <0>        -0.0867
      3 C3          2.3778    1.4105   -0.0131 C.ar      1 <0>        -0.0876
      4 C4          2.3961    0.0274   -0.0207 C.ar      1 <0>        -0.0898
      5 C5          1.2082   -0.6793   -0.0132 C.ar      1 <0>        -0.0969
      6 C6          0.0021   -0.0041    0.0020 C.ar      1 <0>        -0.0741
      7 C7         -1.2928   -0.7750    0.0103 C.3       1 <0>         0.1961
      8 H1         -2.1051   -0.1387   -0.3409 H         1 <0>         0.0919
      9 C8         -1.5971   -1.2745    1.4384 C.3       1 <0>        -0.1234
     10 C9         -2.1931   -2.6859    1.1933 C.3       1 <0>        -0.1297
     11 C10        -1.3641   -3.1664   -0.0240 C.3       1 <0>         0.0891
     12 N1         -1.1754   -1.9587   -0.8538 N.am      1 <0>        -0.6254
     13 C11        -0.9359   -1.9424   -2.1801 C.2       1 <0>         0.7167
     14 O1         -0.7971   -0.8828   -2.7598 O.2       1 <0>        -0.5077
     15 N2         -0.8503   -3.1008   -2.8636 N.am      1 <0>        -0.6210
     16 C12        -0.6032   -3.0840   -4.2322 C.2       1 <0>         0.2600
     17 N3         -0.4198   -2.0516   -5.0314 N.2       1 <0>        -0.3031
     18 N4         -0.2019   -2.1948   -6.2678 N.2       1 <0>        -0.2302
     19 C13        -0.1564   -3.4106   -6.7743 C.2       1 <0>         0.0065
     20 S1         -0.4525   -4.3788   -5.3014 S.3       1 <0>         0.0735
     21 Br1         4.0026    2.3779   -0.0240 Br        1 <0>        -0.0505
     22 H2         -0.9592    1.9053    0.0260 H         1 <0>         0.1326
     23 H3          1.1559    3.1656    0.0077 H         1 <0>         0.1344
     24 H4          3.3384   -0.5003   -0.0329 H         1 <0>         0.1308
     25 H5          1.2224   -1.7592   -0.0191 H         1 <0>         0.1227
     26 H6         -0.6823   -1.3391    2.0275 H         1 <0>         0.0847
     27 H7         -2.3262   -0.6274    1.9260 H         1 <0>         0.0928
     28 H8         -2.0322   -3.3330    2.0555 H         1 <0>         0.0919
     29 H9         -3.2526   -2.6249    0.9448 H         1 <0>         0.0823
     30 H10        -0.4008   -3.5574    0.3036 H         1 <0>         0.0758
     31 H11        -1.9131   -3.9257   -0.5809 H         1 <0>         0.0764
     32 H12        -0.9611   -3.9462   -2.4011 H         1 <0>         0.4230
     33 H13         0.0146   -3.7313   -7.7913 H         1 <0>         0.2405
@<TRIPOS>BOND
     1    1    6 ar
     2    1    2 ar
     3    1   22 1
     4    2    3 ar
     5    2   23 1
     6    3    4 ar
     7    3   21 1
     8    4    5 ar
     9    4   24 1
    10    5    6 ar
    11    5   25 1
    12    6    7 1
    13    7    8 1
    14    7   12 1
    15    7    9 1
    16    9   10 1
    17    9   26 1
    18    9   27 1
    19   10   11 1
    20   10   28 1
    21   10   29 1
    22   11   12 1
    23   11   30 1
    24   11   31 1
    25   12   13 am
    26   13   14 2
    27   13   15 am
    28   15   16 1
    29   15   32 1
    30   16   20 1
    31   16   17 2
    32   17   18 1
    33   18   19 2
    34   19   20 1
    35   19   33 1
@<TRIPOS>MOLECULE
ZINC62515850
   45    47     0     0     0
SMALL
USER_CHARGES

@<TRIPOS>ATOM
      1 C1         -0.0136    1.5184    0.0147 C.3       1 <0>        -0.1529
      2 C2          0.0030   -0.0115    0.0040 C.3       1 <0>        -0.1322
      3 C3         -1.4339   -0.5372    0.0133 C.3       1 <0>         0.1563
      4 H1         -1.9851   -0.1027   -0.8206 H         1 <0>         0.0910
      5 C4         -1.4203   -2.0610   -0.1230 C.3       1 <0>        -0.1648
      6 N1         -2.0818   -0.1654    1.2735 N.am      1 <0>        -0.7377
      7 C5         -3.4235   -0.0535    1.3341 C.2       1 <0>         0.7157
      8 O1         -4.0896   -0.1715    0.3238 O.2       1 <0>        -0.5741
      9 N2         -4.0269    0.1893    2.5146 N.am      1 <0>        -0.6319
     10 C6         -5.4889    0.2002    2.6405 C.3       1 <0>         0.1183
     11 C7         -5.9698    1.5077    3.2360 C.3       1 <0>         0.1759
     12 H2         -6.7762    1.2626    3.9272 H         1 <0>         0.0947
     13 C8         -6.5614    2.4024    2.1806 C.ar      1 <0>        -0.0858
     14 C9         -7.3368    1.8242    1.1864 C.ar      1 <0>        -0.0963
     15 C10        -7.9094    2.6053    0.2018 C.ar      1 <0>        -0.0312
     16 C11        -7.7084    3.9742    0.2090 C.ar      1 <0>        -0.1034
     17 C12        -6.9345    4.5488    1.1952 C.ar      1 <0>        -0.1062
     18 C13        -6.3535    3.7653    2.1844 C.ar      1 <0>        -0.0628
     19 C14        -5.5016    4.4552    3.2167 C.3       1 <0>        -0.0987
     20 C15        -5.3323    3.5854    4.4614 C.3       1 <0>         0.1038
     21 N3         -4.9678    2.2308    3.9983 N.am      1 <0>        -0.5932
     22 C16        -3.7463    1.7655    4.2940 C.2       1 <0>         0.5127
     23 O2         -3.0345    2.4002    5.0432 O.2       1 <0>        -0.5339
     24 C17        -3.2479    0.4499    3.7386 C.3       1 <0>         0.0992
     25 Cl1        -8.8768    1.8726   -1.0396 Cl        1 <0>        -0.0631
     26 H3          1.0100    1.8929    0.0081 H         1 <0>         0.0578
     27 H4         -0.5393    1.8822   -0.8681 H         1 <0>         0.0561
     28 H5         -0.5233    1.8700    0.9117 H         1 <0>         0.0521
     29 H6          0.5127   -0.3631   -0.8930 H         1 <0>         0.0818
     30 H7          0.5286   -0.3753    0.8869 H         1 <0>         0.0681
     31 H8         -2.4440   -2.4355   -0.1164 H         1 <0>         0.0607
     32 H9         -0.9383   -2.3376   -1.0607 H         1 <0>         0.0675
     33 H10        -0.8691   -2.4955    0.7109 H         1 <0>         0.0565
     34 H11        -1.5451    0.0003    2.0644 H         1 <0>         0.3939
     35 H12        -5.9346    0.0701    1.6544 H         1 <0>         0.1197
     36 H13        -5.7993   -0.6226    3.2846 H         1 <0>         0.0869
     37 H14        -7.4942    0.7557    1.1825 H         1 <0>         0.1381
     38 H15        -8.1561    4.5912   -0.5561 H         1 <0>         0.1359
     39 H16        -6.7788    5.6176    1.1986 H         1 <0>         0.1334
     40 H17        -4.5205    4.6631    2.7896 H         1 <0>         0.0827
     41 H18        -5.9740    5.3959    3.4994 H         1 <0>         0.0922
     42 H19        -4.5381    3.9891    5.0894 H         1 <0>         0.1084
     43 H20        -6.2673    3.5543    5.0207 H         1 <0>         0.0820
     44 H21        -3.3976   -0.3596    4.4530 H         1 <0>         0.1132
     45 H22        -2.1896    0.5385    3.4931 H         1 <0>         0.1136
@<TRIPOS>BOND
     1    1    2 1
     2    1   26 1
     3    1   27 1
     4    1   28 1
     5    2    3 1
     6    2   29 1
     7    2   30 1
     8    3    4 1
     9    3    5 1
    10    3    6 1
    11    5   31 1
    12    5   32 1
    13    5   33 1
    14    6    7 am
    15    6   34 1
    16    7    8 2
    17    7    9 am
    18    9   24 1
    19    9   10 1
    20   10   11 1
    21   10   35 1
    22   10   36 1
    23   11   12 1
    24   11   21 1
    25   11   13 1
    26   13   18 ar
    27   13   14 ar
    28   14   15 ar
    29   14   37 1
    30   15   16 ar
    31   15   25 1
    32   16   17 ar
    33   16   38 1
    34   17   18 ar
    35   17   39 1
    36   18   19 1
    37   19   20 1
    38   19   40 1
    39   19   41 1
    40   20   21 1
    41   20   42 1
    42   20   43 1
    43   21   22 am
    44   22   23 2
    45   22   24 1
    46   24   44 1
    47   24   45 1
@<TRIPOS>MOLECULE
ZINC03464252
   31    32     0     0     0
SMALL
USER_CHARGES
2-[4-(4-chlorophenyl)-4-ethyl-2,5-dioxo-imidazolidin-1-yl]acetonitrile
@<TRIPOS>ATOM
      1 C1         -4.9145    0.9696   -0.6725 C.3       1 <0>        -0.1609
      2 C2         -3.6131    1.7741   -0.6880 C.3       1 <0>        -0.1186
      3 C3         -2.5136    0.9789    0.0188 C.3       1 <0>         0.1715
      4 C4         -2.9294    0.6375    1.4359 C.2       1 <0>         0.5389
      5 O1         -3.1888    1.4140    2.3301 O.2       1 <0>        -0.4416
      6 N1         -2.9513   -0.7087    1.4949 N.am      1 <0>        -0.5777
      7 C5         -2.6108   -1.2595    0.3242 C.2       1 <0>         0.7057
      8 O2         -2.5587   -2.4584    0.1313 O.2       1 <0>        -0.5258
      9 N2         -2.3335   -0.3365   -0.6193 N.am      1 <0>        -0.7125
     10 C6         -3.3052   -1.4743    2.6927 C.3       1 <0>         0.2199
     11 C7         -4.7555   -1.7261    2.7034 C.1       1 <0>         0.1796
     12 N3         -5.8747   -1.9204    2.7116 N.1       1 <0>        -0.3897
     13 C8         -1.2191    1.7505    0.0173 C.ar      1 <0>        -0.0994
     14 C9         -0.0126    1.0758    0.0080 C.ar      1 <0>        -0.0853
     15 C10         1.1749    1.7830    0.0004 C.ar      1 <0>        -0.1075
     16 C11         1.1560    3.1663    0.0080 C.ar      1 <0>        -0.0223
     17 C12        -0.0517    3.8410    0.0232 C.ar      1 <0>        -0.1070
     18 C13        -1.2386    3.1328    0.0307 C.ar      1 <0>        -0.0780
     19 Cl1         2.6471    4.0552   -0.0020 Cl        1 <0>        -0.0599
     20 H1         -5.6978    1.5361   -1.1761 H         1 <0>         0.0739
     21 H2         -4.7621    0.0221   -1.1892 H         1 <0>         0.0623
     22 H3         -5.2107    0.7776    0.3587 H         1 <0>         0.0505
     23 H4         -3.7656    2.7217   -0.1713 H         1 <0>         0.0956
     24 H5         -3.3169    1.9661   -1.7193 H         1 <0>         0.0949
     25 H6         -2.0679   -0.5040   -1.5371 H         1 <0>         0.4456
     26 H7         -2.7715   -2.4247    2.6873 H         1 <0>         0.1468
     27 H8         -3.0284   -0.9072    3.5814 H         1 <0>         0.1442
     28 H9          0.0021   -0.0041    0.0020 H         1 <0>         0.1341
     29 H10         2.1175    1.2558   -0.0111 H         1 <0>         0.1398
     30 H11        -0.0671    4.9209    0.0288 H         1 <0>         0.1414
     31 H12        -2.1815    3.6593    0.0425 H         1 <0>         0.1418
@<TRIPOS>BOND
     1    1    2 1
     2    1   20 1
     3    1   21 1
     4    1   22 1
     5    2    3 1
     6    2   23 1
     7    2   24 1
     8    3    9 1
     9    3    4 1
    10    3   13 1
    11    4    5 2
    12    4    6 am
    13    6    7 am
    14    6   10 1
    15    7    8 2
    16    7    9 am
    17    9   25 1
    18   10   11 1
    19   10   26 1
    20   10   27 1
    21   11   12 3
    22   13   18 ar
    23   13   14 ar
    24   14   15 ar
    25   14   28 1
    26   15   16 ar
    27   15   29 1
    28   16   17 ar
    29   16   19 1
    30   17   18 ar
    31   17   30 1
    32   18   31 1
@<TRIPOS>MOLECULE
ZINC38007282
   32    35     0     0     0
SMALL
USER_CHARGES

@<TRIPOS>ATOM
      1 C1         -0.0168    1.3857    0.0097 C.ar      1 <0>        -0.1393
      2 C2          1.1363    2.1169    0.0026 C.ar      1 <0>        -0.0494
      3 C3          2.3822    1.4660   -0.0128 C.ar      1 <0>        -0.0763
      4 C4          3.5968    2.1738   -0.0211 C.ar      1 <0>        -0.0502
      5 C5          4.7823    1.4966   -0.0369 C.ar      1 <0>        -0.1382
      6 C6          4.8276    0.1074   -0.0447 C.ar      1 <0>        -0.0061
      7 C7          3.6516   -0.6280   -0.0370 C.ar      1 <0>        -0.1604
      8 C8          2.4148    0.0559   -0.0206 C.ar      1 <0>         0.0069
      9 C9          1.2107   -0.6844   -0.0131 C.ar      1 <0>        -0.1610
     10 C10         0.0021   -0.0041    0.0020 C.ar      1 <0>        -0.0069
     11 C11         1.2851   -2.1528   -0.0221 C.2       1 <0>         0.5732
     12 O1          0.2620   -2.8102   -0.0163 O.2       1 <0>        -0.4945
     13 N1          2.4799   -2.7737   -0.0372 N.am      1 <0>        -0.5552
     14 C12         3.6448   -2.0983   -0.0457 C.2       1 <0>         0.5720
     15 O2          4.6971   -2.7078   -0.0602 O.2       1 <0>        -0.4884
     16 C13         2.5136   -4.2383   -0.0458 C.3       1 <0>         0.1759
     17 C14         2.5114   -4.7325   -1.4695 C.2       1 <0>        -0.2691
     18 C15         1.4162   -5.0137   -2.2128 C.2       1 <0>         0.0898
     19 N2          1.8378   -5.4261   -3.4266 N.pl3     1 <0>        -0.4762
     20 H1          1.2712   -5.6946   -4.1667 H         1 <0>         0.4412
     21 N3          3.2384   -5.3974   -3.4293 N.2       1 <0>        -0.2958
     22 C16         3.6408   -4.9758   -2.2579 C.2       1 <0>         0.0744
     23 H2         -0.9665    1.8997    0.0261 H         1 <0>         0.1397
     24 H3          1.0912    3.1960    0.0084 H         1 <0>         0.1412
     25 H4          3.5922    3.2538   -0.0153 H         1 <0>         0.1412
     26 H5          5.7074    2.0539   -0.0438 H         1 <0>         0.1400
     27 H6          5.7806   -0.4005   -0.0572 H         1 <0>         0.1467
     28 H7         -0.9265   -0.5555    0.0079 H         1 <0>         0.1458
     29 H8          3.4167   -4.5839    0.4573 H         1 <0>         0.1071
     30 H9          1.6373   -4.6250    0.4744 H         1 <0>         0.1043
     31 H10         0.3888   -4.9242   -1.8922 H         1 <0>         0.1809
     32 H11         4.6677   -4.8419   -1.9515 H         1 <0>         0.1867
@<TRIPOS>BOND
     1    1   10 ar
     2    1    2 ar
     3    1   23 1
     4    2    3 ar
     5    2   24 1
     6    3    8 ar
     7    3    4 ar
     8    4    5 ar
     9    4   25 1
    10    5    6 ar
    11    5   26 1
    12    6    7 ar
    13    6   27 1
    14    7   14 1
    15    7    8 ar
    16    8    9 ar
    17    9   10 ar
    18    9   11 1
    19   10   28 1
    20   11   12 2
    21   11   13 am
    22   13   14 am
    23   13   16 1
    24   14   15 2
    25   16   17 1
    26   16   29 1
    27   16   30 1
    28   17   22 1
    29   17   18 2
    30   18   19 1
    31   18   31 1
    32   19   20 1
    33   19   21 1
    34   21   22 2
    35   22   32 1
@<TRIPOS>MOLECULE
ZINC44022805
   43    45     0     0     0
SMALL
USER_CHARGES

@<TRIPOS>ATOM
      1 C1         -1.3696   -0.5398   -0.0617 C.3       1 <0>        -0.1655
      2 C2          0.0834   -0.0606   -0.0666 C.3       1 <0>         0.1060
      3 N1          0.7523   -0.5174    1.1541 N.am      1 <0>        -0.5548
      4 C3          0.7299    0.2559    2.2575 C.2       1 <0>         0.5555
      5 O1          0.1557    1.3312    2.2412 O.2       1 <0>        -0.5212
      6 C4          1.3712   -0.1845    3.4258 C.2       1 <0>        -0.3395
      7 C5          2.0077   -1.3945    3.4182 C.2       1 <0>         0.4736
      8 N2          2.0057   -2.1505    2.2711 N.am      1 <0>        -0.6526
      9 H1          2.4552   -3.0099    2.2593 H         1 <0>         0.4273
     10 C6          1.3790   -1.7079    1.1655 C.2       1 <0>         0.7041
     11 O2          1.3833   -2.3920    0.1604 O.2       1 <0>        -0.5395
     12 N3          2.6428   -1.8493    4.5454 N.pl3     1 <0>        -0.6397
     13 C7          4.0744   -2.1831    4.5189 C.3       1 <0>         0.1265
     14 C8          4.2615   -3.6047    5.0571 C.3       1 <0>        -0.1434
     15 C9          3.6101   -3.7191    6.4374 C.3       1 <0>        -0.1159
     16 C10         2.1066   -3.4444    6.3114 C.3       1 <0>        -0.0990
     17 H2          1.6297   -3.5587    7.2849 H         1 <0>         0.0854
     18 C11         1.9105   -2.0080    5.8070 C.3       1 <0>         0.1732
     19 H3          2.3050   -1.3077    6.5432 H         1 <0>         0.0779
     20 C12         0.4283   -1.7157    5.5950 C.3       1 <0>        -0.1445
     21 C13        -0.1604   -2.7091    4.5917 C.3       1 <0>        -0.1253
     22 C14         0.0100   -4.1311    5.1316 C.3       1 <0>        -0.1204
     23 C15         1.5042   -4.4446    5.3217 C.3       1 <0>        -0.1121
     24 H4         -1.8838   -0.1321    0.8086 H         1 <0>         0.0616
     25 H5         -1.8674   -0.1999   -0.9699 H         1 <0>         0.0769
     26 H6         -1.3930   -1.6287   -0.0204 H         1 <0>         0.0594
     27 H7          0.5975   -0.4683   -0.9370 H         1 <0>         0.0966
     28 H8          0.1067    1.0284   -0.1079 H         1 <0>         0.1005
     29 H9          1.3624    0.4240    4.3180 H         1 <0>         0.1682
     30 H10         4.4431   -2.1290    3.4946 H         1 <0>         0.0756
     31 H11         4.6248   -1.4804    5.1446 H         1 <0>         0.0756
     32 H12         3.7947   -4.3155    4.3752 H         1 <0>         0.0699
     33 H13         5.3258   -3.8252    5.1384 H         1 <0>         0.0770
     34 H14         3.7648   -4.7238    6.8307 H         1 <0>         0.0680
     35 H15         4.0579   -2.9901    7.1127 H         1 <0>         0.0671
     36 H16        -0.0981   -1.8061    6.5452 H         1 <0>         0.0823
     37 H17         0.3103   -0.7019    5.2124 H         1 <0>         0.0874
     38 H18        -1.2203   -2.4981    4.4496 H         1 <0>         0.0658
     39 H19         0.3610   -2.6164    3.6390 H         1 <0>         0.0608
     40 H20        -0.4989   -4.2193    6.0914 H         1 <0>         0.0640
     41 H21        -0.4181   -4.8423    4.4252 H         1 <0>         0.0607
     42 H22         2.0124   -4.3553    4.3615 H         1 <0>         0.0610
     43 H23         1.6321   -5.4566    5.7059 H         1 <0>         0.0654
@<TRIPOS>BOND
     1    1    2 1
     2    1   24 1
     3    1   25 1
     4    1   26 1
     5    2    3 1
     6    2   27 1
     7    2   28 1
     8    3   10 am
     9    3    4 am
    10    4    5 2
    11    4    6 1
    12    6    7 2
    13    6   29 1
    14    7    8 1
    15    7   12 1
    16    8    9 1
    17    8   10 am
    18   10   11 2
    19   12   18 1
    20   12   13 1
    21   13   14 1
    22   13   30 1
    23   13   31 1
    24   14   15 1
    25   14   32 1
    26   14   33 1
    27   15   16 1
    28   15   34 1
    29   15   35 1
    30   16   17 1
    31   16   23 1
    32   16   18 1
    33   18   19 1
    34   18   20 1
    35   20   21 1
    36   20   36 1
    37   20   37 1
    38   21   22 1
    39   21   38 1
    40   21   39 1
    41   22   23 1
    42   22   40 1
    43   22   41 1
    44   23   42 1
    45   23   43 1
@<TRIPOS>MOLECULE
ZINC48735935
   39    40     0     0     0
SMALL
USER_CHARGES

@<TRIPOS>ATOM
      1 C1         -0.0002    1.5030    0.0098 C.3       1 <0>        -0.1225
      2 C2          0.0128   -0.0039    0.0008 C.ar      1 <0>        -0.0479
      3 C3          0.8221   -0.6802   -0.8977 C.ar      1 <0>        -0.1301
      4 C4          0.8420   -2.0578   -0.9149 C.ar      1 <0>        -0.0782
      5 C5          0.0430   -2.7772   -0.0228 C.ar      1 <0>        -0.1605
      6 C6         -0.7741   -2.0895    0.8845 C.ar      1 <0>         0.1628
      7 C7         -0.7774   -0.7024    0.8916 C.ar      1 <0>        -0.1172
      8 C8         -1.6493    0.0431    1.8689 C.3       1 <0>        -0.1109
      9 O1         -1.5545   -2.7771    1.7553 O.3       1 <0>        -0.4874
     10 C9          0.0591   -4.2524   -0.0360 C.2       1 <0>         0.5895
     11 O2          0.1614   -4.8687    1.0071 O.2       1 <0>        -0.5257
     12 N1         -0.0395   -4.9169   -1.2044 N.am      1 <0>        -0.6165
     13 C10        -0.0607   -4.3030   -2.5402 C.3       1 <0>         0.0966
     14 C11        -0.2110   -5.4452   -3.5670 C.3       1 <0>        -0.1169
     15 C12        -0.8346   -6.5896   -2.7251 C.3       1 <0>        -0.0996
     16 H1         -1.9146   -6.4685   -2.6404 H         1 <0>         0.1264
     17 C13        -0.1378   -6.3802   -1.3550 C.3       1 <0>         0.1236
     18 C14        -0.4889   -7.9369   -3.3048 C.2       1 <0>         0.4733
     19 O3          0.1924   -8.0096   -4.3000 O.2       1 <0>        -0.4969
     20 O4         -0.9377   -9.0563   -2.7156 O.3       1 <0>        -0.3497
     21 C15        -0.5715  -10.2988   -3.3192 C.3       1 <0>         0.0320
     22 H2          0.7644    1.8689    0.6951 H         1 <0>         0.0772
     23 H3          0.2042    1.8742   -0.9944 H         1 <0>         0.0722
     24 H4         -0.9788    1.8559    0.3354 H         1 <0>         0.0735
     25 H5          1.4399   -0.1250   -1.5881 H         1 <0>         0.1327
     26 H6          1.4741   -2.5808   -1.6173 H         1 <0>         0.1333
     27 H7         -2.6273    0.2203    1.4214 H         1 <0>         0.0744
     28 H8         -1.7668   -0.5493    2.7762 H         1 <0>         0.0698
     29 H9         -1.1844    0.9976    2.1158 H         1 <0>         0.0712
     30 H10        -1.1237   -2.9746    2.5982 H         1 <0>         0.3991
     31 H11        -0.9054   -3.6188   -2.6204 H         1 <0>         0.0786
     32 H12         0.8716   -3.7665   -2.7164 H         1 <0>         0.0794
     33 H13        -0.8812   -5.1516   -4.3750 H         1 <0>         0.0960
     34 H14         0.7617   -5.7413   -3.9597 H         1 <0>         0.0957
     35 H15         0.8557   -6.8286   -1.3597 H         1 <0>         0.0763
     36 H16        -0.7426   -6.8043   -0.5535 H         1 <0>         0.0958
     37 H17        -0.9515  -10.3327   -4.3402 H         1 <0>         0.0626
     38 H18         0.5146  -10.3901   -3.3324 H         1 <0>         0.0626
     39 H19        -0.9983  -11.1213   -2.7452 H         1 <0>         0.1052
@<TRIPOS>BOND
     1    1    2 1
     2    1   22 1
     3    1   23 1
     4    1   24 1
     5    2    7 ar
     6    2    3 ar
     7    3    4 ar
     8    3   25 1
     9    4    5 ar
    10    4   26 1
    11    5    6 ar
    12    5   10 1
    13    6    7 ar
    14    6    9 1
    15    7    8 1
    16    8   27 1
    17    8   28 1
    18    8   29 1
    19    9   30 1
    20   10   11 2
    21   10   12 am
    22   12   17 1
    23   12   13 1
    24   13   14 1
    25   13   31 1
    26   13   32 1
    27   14   15 1
    28   14   33 1
    29   14   34 1
    30   15   16 1
    31   15   17 1
    32   15   18 1
    33   17   35 1
    34   17   36 1
    35   18   19 2
    36   18   20 1
    37   20   21 1
    38   21   37 1
    39   21   38 1
    40   21   39 1
@<TRIPOS>MOLECULE
ZINC61578646
   36    38     0     0     0
SMALL
USER_CHARGES

@<TRIPOS>ATOM
      1 C1         -0.3260    1.4817    0.0498 C.3       1 <0>        -0.1183
      2 C2         -0.1454   -0.0142    0.0209 C.ar      1 <0>        -0.0019
      3 C3         -0.2461   -0.6986   -1.1737 C.ar      1 <0>        -0.1836
      4 C4         -0.0792   -2.0773   -1.2002 C.ar      1 <0>         0.2408
      5 C5          0.1890   -2.7669   -0.0242 C.ar      1 <0>        -0.1893
      6 C6          0.2894   -2.0819    1.1696 C.ar      1 <0>        -0.0477
      7 C7          0.1277   -0.7030    1.1948 C.ar      1 <0>         0.0480
      8 N1          0.2356   -0.0060    2.4083 N.pl3     1 <0>        -0.3165
      9 C8         -0.3335   -0.3251    3.5905 C.2       1 <0>         0.2236
     10 N2          0.0264    0.5884    4.4540 N.2       1 <0>        -0.3333
     11 N3          0.7844    1.4633    3.8979 N.2       1 <0>        -0.0419
     12 N4          0.9646    1.1707    2.6550 N.2       1 <0>        -0.0774
     13 N5         -0.1814   -2.7706   -2.4094 N.pl3     1 <0>        -0.7334
     14 C9         -0.0053   -4.2247   -2.4371 C.3       1 <0>         0.1505
     15 H1         -0.4107   -4.6559   -1.5217 H         1 <0>         0.0963
     16 C10        -0.7455   -4.8019   -3.6400 C.3       1 <0>        -0.1388
     17 C11        -0.8241   -6.3229   -3.5493 C.3       1 <0>        -0.1181
     18 C12         0.5591   -6.9327   -3.7956 C.3       1 <0>        -0.0874
     19 S1          1.6886   -6.3611   -2.4904 S.3       1 <0>        -0.2510
     20 C13         1.4869   -4.5546   -2.5373 C.3       1 <0>        -0.1024
     21 H2          0.6484    1.9665   -0.0097 H         1 <0>         0.0866
     22 H3         -0.9377    1.7902   -0.7980 H         1 <0>         0.0739
     23 H4         -0.8194    1.7703    0.9779 H         1 <0>         0.0640
     24 H5         -0.4548   -0.1621   -2.0875 H         1 <0>         0.1350
     25 H6          0.3184   -3.8390   -0.0443 H         1 <0>         0.1376
     26 H7          0.4978   -2.6179    2.0838 H         1 <0>         0.1346
     27 H8         -0.9682   -1.1768    3.7865 H         1 <0>         0.2363
     28 H9         -0.3689   -2.2890   -3.2302 H         1 <0>         0.4041
     29 H10        -1.7549   -4.3918   -3.6706 H         1 <0>         0.0824
     30 H11        -0.2183   -4.5238   -4.5527 H         1 <0>         0.0718
     31 H12        -1.1743   -6.6087   -2.5574 H         1 <0>         0.0805
     32 H13        -1.5223   -6.6947   -4.2992 H         1 <0>         0.0826
     33 H14         0.4894   -8.0201   -3.7684 H         1 <0>         0.1100
     34 H15         0.9321   -6.6121   -4.7683 H         1 <0>         0.0857
     35 H16         1.8853   -4.1652   -3.4742 H         1 <0>         0.0873
     36 H17         2.0177   -4.1065   -1.6973 H         1 <0>         0.1094
@<TRIPOS>BOND
     1    1    2 1
     2    1   21 1
     3    1   22 1
     4    1   23 1
     5    2    7 ar
     6    2    3 ar
     7    3    4 ar
     8    3   24 1
     9    4    5 ar
    10    4   13 1
    11    5    6 ar
    12    5   25 1
    13    6    7 ar
    14    6   26 1
    15    7    8 1
    16    8   12 1
    17    8    9 1
    18    9   10 2
    19    9   27 1
    20   10   11 1
    21   11   12 2
    22   13   14 1
    23   13   28 1
    24   14   15 1
    25   14   20 1
    26   14   16 1
    27   16   17 1
    28   16   29 1
    29   16   30 1
    30   17   18 1
    31   17   31 1
    32   17   32 1
    33   18   19 1
    34   18   33 1
    35   18   34 1
    36   19   20 1
    37   20   35 1
    38   20   36 1
@<TRIPOS>MOLECULE
ZINC04886258
   44    46     0     0     0
SMALL
USER_CHARGES
(2-fluoro-5-nitro-phenyl)carbamoylmethyl 5-methyl-4,5,6,7-tetrahydrobenzothiophene-2-carboxylate
@<TRIPOS>ATOM
      1 C1        -13.1627   -0.8779   -0.6816 C.3       1 <0>        -0.1489
      2 C2        -11.6664   -1.0249   -0.3978 C.3       1 <0>        -0.0937
      3 H1        -11.5177   -1.2109    0.6658 H         1 <0>         0.0741
      4 C3        -11.1096   -2.2025   -1.2027 C.3       1 <0>        -0.1105
      5 C4         -9.6880   -2.5090   -0.7100 C.3       1 <0>        -0.0482
      6 C5         -8.9255   -1.2220   -0.6374 C.2       1 <0>        -0.1513
      7 C6         -9.4401    0.0432   -0.6714 C.2       1 <0>        -0.1491
      8 C7         -8.5342    1.0874   -0.5899 C.2       1 <0>        -0.0424
      9 C8         -7.1898    0.7788   -0.4808 C.2       1 <0>        -0.2511
     10 S1         -7.2221   -1.0056   -0.5027 S.3       1 <0>         0.2051
     11 C9         -6.0408    1.6803   -0.3801 C.2       1 <0>         0.5630
     12 O1         -6.2104    2.8847   -0.3865 O.2       1 <0>        -0.4932
     13 O2         -4.7940    1.1752   -0.2803 O.3       1 <0>        -0.3272
     14 C10        -3.7025    2.1280   -0.1841 C.3       1 <0>         0.0549
     15 C11        -2.3952    1.3855   -0.0808 C.2       1 <0>         0.5184
     16 O3         -2.3844    0.1727   -0.0876 O.2       1 <0>        -0.4797
     17 N1         -1.2380    2.0692    0.0192 N.am      1 <0>        -0.6631
     18 C12        -0.0163    1.3848   -0.0015 C.ar      1 <0>         0.1245
     19 C13         0.0755    0.1437   -0.6164 C.ar      1 <0>        -0.0474
     20 C14         1.2831   -0.5265   -0.6403 C.ar      1 <0>        -0.0317
     21 C15         2.4010    0.0368   -0.0527 C.ar      1 <0>        -0.0427
     22 C16         2.3147    1.2726    0.5614 C.ar      1 <0>        -0.1264
     23 C17         1.1089    1.9496    0.5888 C.ar      1 <0>         0.1242
     24 F1          1.0245    3.1575    1.1880 F         1 <0>        -0.1164
     25 N2          1.3809   -1.8497   -1.2964 N.pl3     1 <0>         0.0266
     26 O4          0.3970   -2.3467   -1.8147 O.2       1 <0>        -0.1452
     27 O5          2.4452   -2.4416   -1.3181 O.3       1 <0>        -0.1499
     28 C18       -10.9456    0.2643   -0.7935 C.3       1 <0>        -0.0521
     29 H2        -13.3141   -0.6876   -1.7441 H         1 <0>         0.0568
     30 H3        -13.6778   -1.7963   -0.3999 H         1 <0>         0.0583
     31 H4        -13.5622   -0.0451   -0.1028 H         1 <0>         0.0570
     32 H5        -11.7435   -3.0771   -1.0568 H         1 <0>         0.0772
     33 H6        -11.0837   -1.9423   -2.2609 H         1 <0>         0.0703
     34 H7         -9.7326   -2.9656    0.2788 H         1 <0>         0.0915
     35 H8         -9.1967   -3.1887   -1.4062 H         1 <0>         0.0890
     36 H9         -8.8678    2.1144   -0.6113 H         1 <0>         0.1470
     37 H10        -3.8389    2.7485    0.7016 H         1 <0>         0.1140
     38 H11        -3.6924    2.7598   -1.0723 H         1 <0>         0.1156
     39 H12        -1.2513    3.0353    0.1055 H         1 <0>         0.4248
     40 H13        -0.7966   -0.2974   -1.0761 H         1 <0>         0.1856
     41 H14         3.3436   -0.4899   -0.0732 H         1 <0>         0.1681
     42 H15         3.1895    1.7098    1.0194 H         1 <0>         0.1685
     43 H16       -11.2513    1.0724   -0.1290 H         1 <0>         0.0770
     44 H17       -11.1946    0.5234   -1.8225 H         1 <0>         0.0785
@<TRIPOS>BOND
     1    1    2 1
     2    1   29 1
     3    1   30 1
     4    1   31 1
     5    2    3 1
     6    2   28 1
     7    2    4 1
     8    4    5 1
     9    4   32 1
    10    4   33 1
    11    5    6 1
    12    5   34 1
    13    5   35 1
    14    6   10 1
    15    6    7 2
    16    7    8 1
    17    7   28 1
    18    8    9 2
    19    8   36 1
    20    9   10 1
    21    9   11 1
    22   11   12 2
    23   11   13 1
    24   13   14 1
    25   14   15 1
    26   14   37 1
    27   14   38 1
    28   15   16 2
    29   15   17 am
    30   17   18 1
    31   17   39 1
    32   18   23 ar
    33   18   19 ar
    34   19   20 ar
    35   19   40 1
    36   20   21 ar
    37   20   25 1
    38   21   22 ar
    39   21   41 1
    40   22   23 ar
    41   22   42 1
    42   23   24 1
    43   25   26 2
    44   25   27 1
    45   28   43 1
    46   28   44 1
@<TRIPOS>MOLECULE
ZINC24206875
   37    39     0     0     0
SMALL
USER_CHARGES
[2-[(4-fluoro-3-nitro-phenyl)amino]-2-oxo-ethyl] 4-fluorobenzothiophene-2-carboxylate
@<TRIPOS>ATOM
      1 C1         -0.6063   -2.3109   -0.0071 C.ar      1 <0>        -0.0434
      2 C2          0.7404   -2.6524   -0.0115 C.ar      1 <0>        -0.1638
      3 C3          1.7207   -1.6952   -0.0109 C.ar      1 <0>         0.1617
      4 C4          1.3835   -0.3145   -0.0053 C.ar      1 <0>        -0.1475
      5 C5          2.2502    0.7920   -0.0030 C.2       1 <0>        -0.0305
      6 C6          1.7406    2.0534    0.0030 C.2       1 <0>        -0.1973
      7 S1         -0.0213    1.7709    0.0060 S.3       1 <0>         0.1427
      8 C7          0.0029   -0.0043   -0.0009 C.ar      1 <0>        -0.0829
      9 C8         -0.9711   -0.9801   -0.0020 C.ar      1 <0>        -0.0936
     10 C9          2.4621    3.3315    0.0058 C.2       1 <0>         0.5609
     11 O1          3.6778    3.3433    0.0027 O.2       1 <0>        -0.4845
     12 O2          1.7765    4.4928    0.0119 O.3       1 <0>        -0.3232
     13 C10         2.5555    5.7181    0.0144 C.3       1 <0>         0.0517
     14 C11         1.6260    6.9043    0.0212 C.2       1 <0>         0.5179
     15 O3          0.4252    6.7337    0.0237 O.2       1 <0>        -0.4882
     16 N1          2.1291    8.1546    0.0245 N.am      1 <0>        -0.6804
     17 C12         1.2688    9.2557   -0.0669 C.ar      1 <0>         0.1449
     18 C13         1.6667   10.3935   -0.7566 C.ar      1 <0>        -0.0623
     19 C14         0.8143   11.4759   -0.8509 C.ar      1 <0>        -0.1334
     20 C15        -0.4316   11.4320   -0.2478 C.ar      1 <0>         0.1572
     21 C16        -0.8280   10.3007    0.4451 C.ar      1 <0>        -0.0640
     22 C17         0.0192    9.2135    0.5365 C.ar      1 <0>        -0.0396
     23 N2         -2.1605   10.2561    1.0879 N.pl3     1 <0>         0.0271
     24 O4         -2.5097    9.2609    1.6972 O.2       1 <0>        -0.1449
     25 O5         -2.9078   11.2145    1.0075 O.3       1 <0>        -0.1419
     26 F1         -1.2617   12.4943   -0.3361 F         1 <0>        -0.0998
     27 F2          3.0195   -2.0670   -0.0153 F         1 <0>        -0.1271
     28 H1         -1.3626   -3.0818   -0.0071 H         1 <0>         0.1514
     29 H2          1.0207   -3.6954   -0.0158 H         1 <0>         0.1470
     30 H3          3.3196    0.6410   -0.0057 H         1 <0>         0.1535
     31 H4         -2.0152   -0.7040    0.0017 H         1 <0>         0.1455
     32 H5          3.1921    5.7460    0.9110 H         1 <0>         0.1159
     33 H6          3.1875    5.7527   -0.8853 H         1 <0>         0.1159
     34 H7          3.2155    8.3101    0.0990 H         1 <0>         0.4496
     35 H8          2.6402   10.4301   -1.2227 H         1 <0>         0.1597
     36 H9          1.1215   12.3592   -1.3912 H         1 <0>         0.1676
     37 H10        -0.2901    8.3314    1.0774 H         1 <0>         0.1782
@<TRIPOS>BOND
     1    1    9 ar
     2    1    2 ar
     3    1   28 1
     4    2    3 ar
     5    2   29 1
     6    3    4 ar
     7    3   27 1
     8    4    8 ar
     9    4    5 1
    10    5    6 2
    11    5   30 1
    12    6    7 1
    13    6   10 1
    14    7    8 1
    15    8    9 ar
    16    9   31 1
    17   10   11 2
    18   10   12 1
    19   12   13 1
    20   13   14 1
    21   13   32 1
    22   13   33 1
    23   14   15 2
    24   14   16 am
    25   16   17 1
    26   16   34 1
    27   17   22 ar
    28   17   18 ar
    29   18   19 ar
    30   18   35 1
    31   19   20 ar
    32   19   36 1
    33   20   21 ar
    34   20   26 1
    35   21   22 ar
    36   21   23 1
    37   22   37 1
    38   23   24 2
    39   23   25 1
@<TRIPOS>MOLECULE
ZINC46893293
   36    37     0     0     0
SMALL
USER_CHARGES

@<TRIPOS>ATOM
      1 C1          0.1572    1.1142    1.1899 C.ar      1 <0>        -0.0544
      2 C2          1.3417    1.8211    1.1721 C.ar      1 <0>        -0.0589
      3 C3          2.4580    1.2910    0.5499 C.ar      1 <0>        -0.0229
      4 C4          2.3948    0.0496   -0.0579 C.ar      1 <0>        -0.0595
      5 C5          1.2166   -0.6679   -0.0470 C.ar      1 <0>        -0.0851
      6 C6          0.0866   -0.1388    0.5786 C.ar      1 <0>        -0.0881
      7 C7         -1.1793   -0.9018    0.5937 C.2       1 <0>         0.5612
      8 O1         -2.1619   -0.4384    1.1394 O.2       1 <0>        -0.5007
      9 N1         -1.2442   -2.1113    0.0026 N.am      1 <0>        -0.6625
     10 C8         -2.4132   -2.8765    0.1001 C.ar      1 <0>         0.1093
     11 C9         -3.6548   -2.2495    0.1034 C.ar      1 <0>        -0.0445
     12 C10        -4.8121   -2.9957    0.1991 C.ar      1 <0>        -0.1863
     13 C11        -4.7446   -4.3773    0.2926 C.ar      1 <0>         0.1657
     14 C12        -3.4974   -5.0165    0.2899 C.ar      1 <0>        -0.0282
     15 C13        -2.3305   -4.2557    0.1871 C.ar      1 <0>        -0.0524
     16 C14        -3.4199   -6.4431    0.3867 C.1       1 <0>         0.2530
     17 N2         -3.3585   -7.5748    0.4635 N.1       1 <0>        -0.3966
     18 O2         -5.8841   -5.1094    0.3871 O.3       1 <0>        -0.2935
     19 C15        -7.1192   -4.3905    0.3843 C.3       1 <0>         0.0101
     20 C16        -8.2835   -5.3766    0.4974 C.3       1 <0>         0.4655
     21 F1         -8.1678   -6.1001    1.6892 F         1 <0>        -0.1711
     22 F2         -9.4926   -4.6729    0.4947 F         1 <0>        -0.1680
     23 F3         -8.2548   -6.2586   -0.5882 F         1 <0>        -0.1712
     24 N3          3.7254    2.0555    0.5339 N.pl3     1 <0>         0.0261
     25 O3          3.7835    3.1406    1.0638 O.2       1 <0>        -0.1462
     26 O4          4.7024    1.5948   -0.0091 O.3       1 <0>        -0.1472
     27 H1         -0.7123    1.5273    1.6795 H         1 <0>         0.1640
     28 H2          1.3977    2.7906    1.6447 H         1 <0>         0.1646
     29 H3          3.2697   -0.3583   -0.5422 H         1 <0>         0.1636
     30 H4          1.1685   -1.6366   -0.5221 H         1 <0>         0.1517
     31 H5         -0.4814   -2.4518   -0.4903 H         1 <0>         0.4154
     32 H6         -3.7136   -1.1735    0.0312 H         1 <0>         0.1550
     33 H7         -5.7727   -2.5020    0.2015 H         1 <0>         0.1474
     34 H8         -1.3662   -4.7418    0.1796 H         1 <0>         0.1495
     35 H9         -7.1415   -3.7034    1.2302 H         1 <0>         0.1177
     36 H10        -7.2093   -3.8268   -0.5442 H         1 <0>         0.1176
@<TRIPOS>BOND
     1    1    6 ar
     2    1    2 ar
     3    1   27 1
     4    2    3 ar
     5    2   28 1
     6    3    4 ar
     7    3   24 1
     8    4    5 ar
     9    4   29 1
    10    5    6 ar
    11    5   30 1
    12    6    7 1
    13    7    8 2
    14    7    9 am
    15    9   10 1
    16    9   31 1
    17   10   15 ar
    18   10   11 ar
    19   11   12 ar
    20   11   32 1
    21   12   13 ar
    22   12   33 1
    23   13   14 ar
    24   13   18 1
    25   14   15 ar
    26   14   16 1
    27   15   34 1
    28   16   17 3
    29   18   19 1
    30   19   20 1
    31   19   35 1
    32   19   36 1
    33   20   21 1
    34   20   22 1
    35   20   23 1
    36   24   25 2
    37   24   26 1
@<TRIPOS>MOLECULE
ZINC60933960
   39    41     0     0     0
SMALL
USER_CHARGES

@<TRIPOS>ATOM
      1 C1         -0.0169    1.3943    0.0097 C.ar      1 <0>        -0.0431
      2 C2          1.1695    2.0964    0.0022 C.ar      1 <0>        -0.1095
      3 C3          2.3783    1.4201   -0.0135 C.ar      1 <0>         0.0213
      4 C4          2.4047    0.0347   -0.0212 C.ar      1 <0>        -0.0453
      5 C5          1.2266   -0.6803   -0.0133 C.ar      1 <0>        -0.0193
      6 C6          0.0021   -0.0041    0.0020 C.ar      1 <0>        -0.0693
      7 C7         -1.2601   -0.7605    0.0105 C.2       1 <0>        -0.0108
      8 C8         -2.4389   -0.1053    0.0257 C.2       1 <0>        -0.1969
      9 C9         -3.6940   -0.8576    0.0341 C.2       1 <0>         0.5551
     10 O1         -3.6742   -2.0746    0.0274 O.2       1 <0>        -0.4996
     11 N1         -4.8720   -0.2029    0.0494 N.am      1 <0>        -0.6426
     12 C10        -6.0672   -0.9192    0.0574 C.2       1 <0>         0.3034
     13 C11        -6.1936   -2.2749    0.0573 C.2       1 <0>        -0.2740
     14 C12        -7.5576   -2.5781    0.0677 C.2       1 <0>         0.0606
     15 N2         -8.2309   -1.4563    0.0738 N.2       1 <0>        -0.2834
     16 N3         -7.3191   -0.3930    0.0726 N.pl3     1 <0>        -0.3830
     17 C13        -7.6559    1.0328    0.0828 C.3       1 <0>         0.1902
     18 C14        -7.7859    1.5284   -1.3344 C.2       1 <0>        -0.1630
     19 C15        -6.6862    2.0282   -2.0063 C.2       1 <0>        -0.1507
     20 C16        -6.8374    2.4659   -3.2803 C.2       1 <0>        -0.1708
     21 S1         -8.5754    2.1757   -3.5667 S.3       1 <0>         0.0592
     22 C17        -8.9818    1.4855   -1.9711 C.2       1 <0>        -0.1339
     23 N4          3.7014   -0.6789   -0.0384 N.pl3     1 <0>         0.0291
     24 O2          3.7261   -1.8877   -0.0451 O.2       1 <0>        -0.1526
     25 O3          4.7358   -0.0531   -0.0457 O.3       1 <0>        -0.1289
     26 Cl1         3.8673    2.3126   -0.0241 Cl        1 <0>         0.0043
     27 H1         -0.9586    1.9228    0.0260 H         1 <0>         0.1565
     28 H2          1.1564    3.1763    0.0081 H         1 <0>         0.1629
     29 H3          1.2487   -1.7600   -0.0197 H         1 <0>         0.1697
     30 H4         -1.2425   -1.8404    0.0045 H         1 <0>         0.1516
     31 H5         -2.4565    0.9745    0.0317 H         1 <0>         0.1368
     32 H6         -4.8878    0.7670    0.0547 H         1 <0>         0.4090
     33 H7         -5.3835   -2.9892    0.0502 H         1 <0>         0.1730
     34 H8         -7.9838   -3.5704    0.0697 H         1 <0>         0.1874
     35 H9         -8.6003    1.1792    0.6070 H         1 <0>         0.1097
     36 H10        -6.8682    1.5886    0.5913 H         1 <0>         0.0926
     37 H11        -5.7211    2.0696   -1.5234 H         1 <0>         0.1259
     38 H12        -6.0982    2.8825   -3.9485 H         1 <0>         0.1881
     39 H13        -9.9336    1.1277   -1.6073 H         1 <0>         0.1903
@<TRIPOS>BOND
     1    1    6 ar
     2    1    2 ar
     3    1   27 1
     4    2    3 ar
     5    2   28 1
     6    3    4 ar
     7    3   26 1
     8    4    5 ar
     9    4   23 1
    10    5    6 ar
    11    5   29 1
    12    6    7 1
    13    7    8 2
    14    7   30 1
    15    8    9 1
    16    8   31 1
    17    9   10 2
    18    9   11 am
    19   11   12 1
    20   11   32 1
    21   12   16 1
    22   12   13 2
    23   13   14 1
    24   13   33 1
    25   14   15 2
    26   14   34 1
    27   15   16 1
    28   16   17 1
    29   17   18 1
    30   17   35 1
    31   17   36 1
    32   18   22 2
    33   18   19 1
    34   19   20 2
    35   19   37 1
    36   20   21 1
    37   20   38 1
    38   21   22 1
    39   22   39 1
    40   23   24 2
    41   23   25 1
@<TRIPOS>MOLECULE
ZINC66454954
   44    47     0     0     0
SMALL
USER_CHARGES

@<TRIPOS>ATOM
      1 C1         -0.0164    1.3598    0.0095 C.2       1 <0>        -0.0165
      2 C2          1.1971    2.0617    0.0017 C.2       1 <0>        -0.2297
      3 C3          2.3691    1.3848   -0.0131 C.2       1 <0>         0.1310
      4 N1          2.3855    0.0273   -0.0206 N.am      1 <0>        -0.4924
      5 C4          1.2367   -0.6752   -0.0138 C.2       1 <0>         0.5133
      6 O1          1.2678   -1.8954   -0.0211 O.2       1 <0>        -0.5492
      7 C5          0.0021   -0.0041    0.0020 C.2       1 <0>        -0.2433
      8 C6          3.6676   -0.6813   -0.0366 C.3       1 <0>         0.1285
      9 C7          4.1208   -0.9319    1.3786 C.ar      1 <0>        -0.1009
     10 C8          4.9031    0.0035    2.0297 C.ar      1 <0>        -0.1045
     11 C9          5.3188   -0.2264    3.3279 C.ar      1 <0>        -0.0978
     12 C10         4.9519   -1.3915    3.9751 C.ar      1 <0>        -0.1103
     13 C11         4.1688   -2.3265    3.3243 C.ar      1 <0>        -0.0962
     14 C12         3.7496   -2.0946    2.0276 C.ar      1 <0>        -0.0903
     15 C13         5.4059   -1.6426    5.3900 C.3       1 <0>         0.1691
     16 N2          4.4154   -1.1015    6.3240 N.pl3     1 <0>        -0.6547
     17 C14         4.6164   -1.2139    7.6846 C.2       1 <0>         0.4367
     18 N3          5.6241   -1.7603    8.3262 N.2       1 <0>        -0.5899
     19 C15         5.6899   -1.7988    9.6753 C.ar      1 <0>         0.1916
     20 C16         6.7092   -2.3523   10.4838 C.ar      1 <0>        -0.0882
     21 C17         6.6205   -2.3077   11.8508 C.ar      1 <0>        -0.0362
     22 C18         5.5358   -1.7228   12.4880 C.ar      1 <0>        -0.0647
     23 C19         4.5205   -1.1715   11.7278 C.ar      1 <0>         0.0299
     24 C20         4.6012   -1.2113   10.3585 C.ar      1 <0>        -0.1901
     25 S1          3.5759   -0.6460    9.0221 S.3       1 <0>         0.0251
     26 N4          5.4657   -1.6896   13.9662 N.pl3     1 <0>         0.0415
     27 O2          6.3566   -2.1738   14.6247 O.2       1 <0>        -0.1548
     28 O3          4.5176   -1.1784   14.5151 O.3       1 <0>        -0.1616
     29 H1         -0.9555    1.8930    0.0258 H         1 <0>         0.1358
     30 H2          1.1968    3.1417    0.0071 H         1 <0>         0.1461
     31 H3          3.3012    1.9304   -0.0195 H         1 <0>         0.1604
     32 H4         -0.9224   -0.5624    0.0082 H         1 <0>         0.1486
     33 H5          3.5502   -1.6332   -0.5545 H         1 <0>         0.1118
     34 H6          4.4112   -0.0754   -0.5543 H         1 <0>         0.1028
     35 H7          5.1898    0.9137    1.5241 H         1 <0>         0.1272
     36 H8          5.9306    0.5041    3.8364 H         1 <0>         0.1291
     37 H9          3.8824   -3.2369    3.8298 H         1 <0>         0.1292
     38 H10         3.1347   -2.8234    1.5204 H         1 <0>         0.1363
     39 H11         5.5110   -2.7152    5.5529 H         1 <0>         0.0879
     40 H12         6.3661   -1.1541    5.5555 H         1 <0>         0.0881
     41 H13         3.6182   -0.6642    5.9860 H         1 <0>         0.4264
     42 H14         7.5669   -2.8157   10.0191 H         1 <0>         0.1545
     43 H15         7.4128   -2.7379   12.4454 H         1 <0>         0.1609
     44 H16         3.6695   -0.7122   12.2089 H         1 <0>         0.1597
@<TRIPOS>BOND
     1    1    7 2
     2    1    2 1
     3    1   29 1
     4    2    3 2
     5    2   30 1
     6    3    4 1
     7    3   31 1
     8    4    5 am
     9    4    8 1
    10    5    6 2
    11    5    7 1
    12    7   32 1
    13    8    9 1
    14    8   33 1
    15    8   34 1
    16    9   14 ar
    17    9   10 ar
    18   10   11 ar
    19   10   35 1
    20   11   12 ar
    21   11   36 1
    22   12   13 ar
    23   12   15 1
    24   13   14 ar
    25   13   37 1
    26   14   38 1
    27   15   16 1
    28   15   39 1
    29   15   40 1
    30   16   17 1
    31   16   41 1
    32   17   25 1
    33   17   18 2
    34   18   19 1
    35   19   24 ar
    36   19   20 ar
    37   20   21 ar
    38   20   42 1
    39   21   22 ar
    40   21   43 1
    41   22   23 ar
    42   22   26 1
    43   23   24 ar
    44   23   44 1
    45   24   25 1
    46   26   27 2
    47   26   28 1
@<TRIPOS>MOLECULE
ZINC04263348
   40    42     0     0     0
SMALL
USER_CHARGES

@<TRIPOS>ATOM
      1 C1          1.2689   -0.7050   -1.6766 C.3       1 <0>        -0.1496
      2 C2          0.5633   -1.0403   -0.3611 C.3       1 <0>         0.0564
      3 O1         -0.7383   -1.5610   -0.6380 O.3       1 <0>        -0.3475
      4 C3         -1.4973   -1.9088    0.4223 C.2       1 <0>         0.5433
      5 C4         -2.7956   -2.4308    0.2213 C.2       1 <0>        -0.2446
      6 C5         -3.9758   -1.5148    0.3662 C.3       1 <0>         0.1154
      7 H1         -3.8387   -0.8908    1.2493 H         1 <0>         0.0910
      8 C6         -5.2493   -2.2991    0.5085 C.2       1 <0>        -0.4025
      9 C7         -5.2966   -3.6556    0.1710 C.2       1 <0>         0.4872
     10 N1         -6.4349   -4.3292    0.3004 N.2       1 <0>        -0.6636
     11 C8         -7.5340   -3.7299    0.7510 C.2       1 <0>         0.6689
     12 N2         -7.5283   -2.4273    1.0892 N.am      1 <0>        -0.6692
     13 C9         -6.3830   -1.6915    0.9721 C.2       1 <0>         0.5071
     14 O2         -6.3711   -0.3837    1.3091 O.3       1 <0>        -0.6473
     15 O3         -8.5654   -4.3725    0.8591 O.2       1 <0>        -0.5953
     16 N3         -4.1610   -4.2911   -0.2905 N.pl3     1 <0>        -0.6289
     17 C10        -2.9307   -3.7271   -0.0979 C.2       1 <0>         0.2020
     18 C11        -1.6982   -4.5823   -0.2414 C.3       1 <0>        -0.1312
     19 C12        -4.0715   -0.6337   -0.8527 C.ar      1 <0>        -0.0373
     20 C13        -4.2398   -1.1990   -2.1029 C.ar      1 <0>        -0.0881
     21 C14        -4.3276   -0.3910   -3.2209 C.ar      1 <0>        -0.1242
     22 C15        -4.2472    0.9830   -3.0896 C.ar      1 <0>        -0.1225
     23 C16        -4.0789    1.5493   -1.8403 C.ar      1 <0>        -0.1203
     24 C17        -3.9966    0.7412   -0.7200 C.ar      1 <0>        -0.0147
     25 Cl1        -3.7918    1.4522    0.8504 Cl        1 <0>        -0.0630
     26 O4         -1.0642   -1.7731    1.5514 O.2       1 <0>        -0.5047
     27 H2          2.2618   -0.3079   -1.4654 H         1 <0>         0.0742
     28 H3          1.3596   -1.6078   -2.2807 H         1 <0>         0.0643
     29 H4          0.6881    0.0395   -2.2210 H         1 <0>         0.0664
     30 H5          1.1442   -1.7849    0.1833 H         1 <0>         0.0631
     31 H6          0.4726   -0.1376    0.2430 H         1 <0>         0.0648
     32 H7         -1.3981   -4.9543    0.7382 H         1 <0>         0.0860
     33 H8         -1.9146   -5.4241   -0.8991 H         1 <0>         0.0801
     34 H9         -0.8904   -3.9869   -0.6670 H         1 <0>         0.0854
     35 H10        -4.3024   -2.2722   -2.2061 H         1 <0>         0.1204
     36 H11        -4.4588   -0.8332   -4.1975 H         1 <0>         0.1192
     37 H12        -4.3155    1.6138   -3.9635 H         1 <0>         0.1216
     38 H13        -4.0157    2.6226   -1.7379 H         1 <0>         0.1240
     39 H14        -4.2362   -5.1389   -0.7557 H         1 <0>         0.4142
     40 H15        -8.3398   -2.0095    1.4174 H         1 <0>         0.3995
@<TRIPOS>BOND
     1    1    2 1
     2    1   27 1
     3    1   28 1
     4    1   29 1
     5    2    3 1
     6    2   30 1
     7    2   31 1
     8    3    4 1
     9    4   26 2
    10    4    5 1
    11    5    6 1
    12    5   17 2
    13    6    7 1
    14    6    8 1
    15    6   19 1
    16    8   13 2
    17    8    9 1
    18    9   10 2
    19    9   16 1
    20   10   11 1
    21   11   12 am
    22   11   15 2
    23   12   13 1
    24   12   40 1
    25   13   14 1
    26   16   17 1
    27   16   39 1
    28   17   18 1
    29   18   32 1
    30   18   33 1
    31   18   34 1
    32   19   24 ar
    33   19   20 ar
    34   20   21 ar
    35   20   35 1
    36   21   22 ar
    37   21   36 1
    38   22   23 ar
    39   22   37 1
    40   23   24 ar
    41   23   38 1
    42   24   25 1
@<TRIPOS>MOLECULE
ZINC07358073
   46    48     0     0     0
SMALL
USER_CHARGES
(2-carbamoyl-1-piperidyl)carbonylmethyl 1-hydroxynaphthalene-2-carboxylate
@<TRIPOS>ATOM
      1 C1          6.5516   -2.0629   -7.5170 C.ar      1 <0>        -0.0939
      2 C2          6.6782   -0.7043   -7.7960 C.ar      1 <0>        -0.1223
      3 C3          5.8694    0.2119   -7.1948 C.ar      1 <0>        -0.0842
      4 C4          4.8932   -0.2162   -6.2806 C.ar      1 <0>        -0.0951
      5 C5          4.7639   -1.5981   -5.9963 C.ar      1 <0>        -0.0108
      6 C6          5.6159   -2.5133   -6.6357 C.ar      1 <0>        -0.1169
      7 C7          3.7873   -2.0347   -5.0801 C.ar      1 <0>        -0.1244
      8 C8          2.9766   -1.1373   -4.4671 C.ar      1 <0>        -0.0576
      9 C9          3.0851    0.2395   -4.7395 C.ar      1 <0>        -0.1596
     10 C10         4.0405    0.7062   -5.6408 C.ar      1 <0>         0.2067
     11 O1          4.1481    2.0312   -5.8994 O.3       1 <0>        -0.4715
     12 C11         2.1890    1.1920   -4.0644 C.2       1 <0>         0.5118
     13 O2          2.2832    2.3820   -4.2934 O.2       1 <0>        -0.4915
     14 O3          1.2638    0.7447   -3.1922 O.3       1 <0>        -0.3285
     15 C12         0.4144    1.7407   -2.5637 C.3       1 <0>         0.0561
     16 C13        -0.5505    1.0595   -1.6277 C.2       1 <0>         0.5099
     17 O4         -0.5248   -0.1466   -1.5027 O.2       1 <0>        -0.4783
     18 N1         -1.4456    1.7900   -0.9339 N.am      1 <0>        -0.6021
     19 C14        -1.4304    3.2575   -1.0052 C.3       1 <0>         0.1041
     20 C15        -1.3619    3.8197    0.4181 C.3       1 <0>        -0.1388
     21 C16        -2.5123    3.2426    1.2462 C.3       1 <0>        -0.1191
     22 C17        -2.3755    1.7201    1.3211 C.3       1 <0>        -0.1234
     23 C18        -2.4590    1.1340   -0.0965 C.3       1 <0>         0.1298
     24 H1         -3.4501    1.3158   -0.5122 H         1 <0>         0.0916
     25 C19        -2.1923   -0.3485   -0.0488 C.2       1 <0>         0.5347
     26 O5         -1.1963   -0.7680    0.5015 O.2       1 <0>        -0.5210
     27 N2         -3.0607   -1.2081   -0.6175 N.am      1 <0>        -0.8544
     28 H2          7.2052   -2.7698   -8.0064 H         1 <0>         0.1290
     29 H3          7.4280   -0.3726   -8.4991 H         1 <0>         0.1291
     30 H4          5.9779    1.2624   -7.4204 H         1 <0>         0.1353
     31 H5          5.5292   -3.5699   -6.4297 H         1 <0>         0.1345
     32 H6          3.6868   -3.0877   -4.8618 H         1 <0>         0.1389
     33 H7          2.2344   -1.4840   -3.7633 H         1 <0>         0.1450
     34 H8          4.7616    2.4974   -5.3152 H         1 <0>         0.4012
     35 H9         -0.1423    2.2795   -3.3305 H         1 <0>         0.1041
     36 H10         1.0314    2.4422   -2.0022 H         1 <0>         0.1026
     37 H11        -0.5586    3.5868   -1.5705 H         1 <0>         0.0888
     38 H12        -2.3381    3.6089   -1.4959 H         1 <0>         0.0796
     39 H13        -0.4112    3.5425    0.8734 H         1 <0>         0.0718
     40 H14        -1.4463    4.9059    0.3847 H         1 <0>         0.0831
     41 H15        -2.4804    3.6600    2.2526 H         1 <0>         0.0748
     42 H16        -3.4620    3.4990    0.7767 H         1 <0>         0.0684
     43 H17        -1.4152    1.4627    1.7679 H         1 <0>         0.0827
     44 H18        -3.1816    1.3120    1.9309 H         1 <0>         0.0805
     45 H19        -3.8573   -0.8725   -1.0576 H         1 <0>         0.3957
     46 H20        -2.8890   -2.1623   -0.5868 H         1 <0>         0.4038
@<TRIPOS>BOND
     1    1    6 ar
     2    1    2 ar
     3    1   28 1
     4    2    3 ar
     5    2   29 1
     6    3    4 ar
     7    3   30 1
     8    4   10 ar
     9    4    5 ar
    10    5    6 ar
    11    5    7 ar
    12    6   31 1
    13    7    8 ar
    14    7   32 1
    15    8    9 ar
    16    8   33 1
    17    9   10 ar
    18    9   12 1
    19   10   11 1
    20   11   34 1
    21   12   13 2
    22   12   14 1
    23   14   15 1
    24   15   16 1
    25   15   35 1
    26   15   36 1
    27   16   17 2
    28   16   18 am
    29   18   23 1
    30   18   19 1
    31   19   20 1
    32   19   37 1
    33   19   38 1
    34   20   21 1
    35   20   39 1
    36   20   40 1
    37   21   22 1
    38   21   41 1
    39   21   42 1
    40   22   23 1
    41   22   43 1
    42   22   44 1
    43   23   24 1
    44   23   25 1
    45   25   26 2
    46   25   27 am
    47   27   45 1
    48   27   46 1
@<TRIPOS>MOLECULE
ZINC31987125
   36    37     0     0     0
SMALL
USER_CHARGES
5-[[(E)-3-(4-chloro-3-nitro-phenyl)prop-2-enoyl]amino]-2-fluoro-benzamide
@<TRIPOS>ATOM
      1 C1         -3.2322   -2.6257    0.1773 C.ar      1 <0>        -0.0434
      2 C2         -4.3026   -3.4876    0.2859 C.ar      1 <0>        -0.1092
      3 C3         -4.1231   -4.8478    0.0951 C.ar      1 <0>         0.0203
      4 C4         -2.8680   -5.3523   -0.2059 C.ar      1 <0>        -0.0400
      5 C5         -1.7899   -4.5018   -0.3233 C.ar      1 <0>        -0.0209
      6 C6         -1.9627   -3.1277   -0.1263 C.ar      1 <0>        -0.0675
      7 C7         -0.8152   -2.2140   -0.2438 C.2       1 <0>        -0.0203
      8 C8         -0.9864   -0.8891   -0.0587 C.2       1 <0>        -0.1990
      9 C9          0.1549    0.0196   -0.1756 C.2       1 <0>         0.5500
     10 O1          1.2586   -0.4204   -0.4399 O.2       1 <0>        -0.5196
     11 N1         -0.0162    1.3436    0.0094 N.am      1 <0>        -0.6793
     12 C10         1.0912    2.1993    0.0072 C.ar      1 <0>         0.1338
     13 C11         2.3123    1.7563    0.5038 C.ar      1 <0>        -0.0668
     14 C12         3.4106    2.5936    0.4994 C.ar      1 <0>        -0.1408
     15 C13         3.3005    3.8832    0.0110 C.ar      1 <0>         0.1463
     16 C14         2.0753    4.3390   -0.4850 C.ar      1 <0>        -0.1557
     17 C15         0.9685    3.4884   -0.4844 C.ar      1 <0>        -0.0864
     18 C16         1.9527    5.7149   -1.0080 C.2       1 <0>         0.5630
     19 O2          2.9182    6.4537   -1.0074 O.2       1 <0>        -0.5300
     20 N2          0.7705    6.1514   -1.4859 N.am      1 <0>        -0.8714
     21 F1          4.3757    4.7012    0.0129 F         1 <0>        -0.1127
     22 N3         -2.6861   -6.8073   -0.4080 N.pl3     1 <0>         0.0231
     23 O3         -1.5836   -7.2522   -0.6726 O.2       1 <0>        -0.1542
     24 O4         -3.6389   -7.5596   -0.3096 O.3       1 <0>        -0.1294
     25 Cl1        -5.4767   -5.9258    0.2344 Cl        1 <0>         0.0046
     26 H1         -3.3737   -1.5654    0.3259 H         1 <0>         0.1572
     27 H2         -5.2836   -3.1014    0.5206 H         1 <0>         0.1630
     28 H3         -0.8132   -4.8958   -0.5623 H         1 <0>         0.1690
     29 H4          0.1822   -2.6116   -0.4826 H         1 <0>         0.1531
     30 H5         -1.9838   -0.4915    0.1801 H         1 <0>         0.1398
     31 H6         -1.0263    1.7516    0.1621 H         1 <0>         0.4394
     32 H7          2.4032    0.7521    0.8908 H         1 <0>         0.1492
     33 H8          4.3572    2.2421    0.8827 H         1 <0>         0.1491
     34 H9          0.0192    3.8345   -0.8658 H         1 <0>         0.1396
     35 H10         0.6793    7.1761   -1.8754 H         1 <0>         0.4305
     36 H11        -0.1031    5.4830   -1.4865 H         1 <0>         0.4156
@<TRIPOS>BOND
     1    1    6 ar
     2    1    2 ar
     3    1   26 1
     4    2    3 ar
     5    2   27 1
     6    3    4 ar
     7    3   25 1
     8    4    5 ar
     9    4   22 1
    10    5    6 ar
    11    5   28 1
    12    6    7 1
    13    7    8 2
    14    7   29 1
    15    8    9 1
    16    8   30 1
    17    9   10 2
    18    9   11 am
    19   11   12 1
    20   11   31 1
    21   12   17 ar
    22   12   13 ar
    23   13   14 ar
    24   13   32 1
    25   14   15 ar
    26   14   33 1
    27   15   16 ar
    28   15   21 1
    29   16   17 ar
    30   16   18 1
    31   17   34 1
    32   18   19 2
    33   18   20 am
    34   20   35 1
    35   20   36 1
    36   22   23 2
    37   22   24 1
@<TRIPOS>MOLECULE
ZINC56320012
   40    41     0     0     0
SMALL
USER_CHARGES

@<TRIPOS>ATOM
      1 C1         -0.1687   -0.0197    0.7627 C.3       1 <0>        -0.1655
      2 C2          0.0141   -1.4719    0.3169 C.3       1 <0>         0.1503
      3 H1          0.6133   -2.0057    1.0545 H         1 <0>         0.1140
      4 C3         -1.3551   -2.1427    0.1901 C.3       1 <0>         0.0464
      5 O1         -2.1813   -1.3766   -0.6888 O.3       1 <0>        -0.3054
      6 C4         -3.4404   -1.8386   -0.9116 C.ar      1 <0>         0.0951
      7 C5         -3.8732   -3.0016   -0.2927 C.ar      1 <0>        -0.1821
      8 C6         -5.1532   -3.4695   -0.5204 C.ar      1 <0>        -0.0886
      9 C7         -6.0034   -2.7800   -1.3651 C.ar      1 <0>        -0.1256
     10 C8         -5.5758   -1.6203   -1.9846 C.ar      1 <0>        -0.1157
     11 C9         -4.2977   -1.1436   -1.7551 C.ar      1 <0>         0.0700
     12 F1         -3.8815   -0.0071   -2.3555 F         1 <0>        -0.1315
     13 N1          0.6949   -1.5025   -0.9800 N.am      1 <0>        -0.7167
     14 C10         2.0406   -1.4515   -1.0360 C.2       1 <0>         0.5766
     15 O2          2.6896   -1.3800   -0.0101 O.2       1 <0>        -0.5284
     16 C11         2.7257   -1.4824   -2.3411 C.ar      1 <0>        -0.1878
     17 C12         1.9939   -1.6840   -3.5146 C.ar      1 <0>        -0.0252
     18 C13         2.6411   -1.7118   -4.7323 C.ar      1 <0>         0.0481
     19 C14         4.0168   -1.5408   -4.7982 C.ar      1 <0>        -0.0205
     20 C15         4.7514   -1.3414   -3.6475 C.ar      1 <0>        -0.1064
     21 C16         4.1155   -1.3037   -2.4129 C.ar      1 <0>         0.3250
     22 N2          4.8535   -1.0963   -1.2535 N.pl3     1 <0>        -0.8242
     23 N3          6.2183   -1.1612   -3.7291 N.pl3     1 <0>         0.0498
     24 O3          6.7862   -1.2974   -4.7878 O.2       1 <0>        -0.1521
     25 O4          6.8487   -0.8777   -2.7372 O.3       1 <0>        -0.1671
     26 F2          1.9327   -1.9068   -5.8661 F         1 <0>        -0.1211
     27 H2          0.8067    0.4582    0.8530 H         1 <0>         0.0656
     28 H3         -0.7679    0.5141    0.0251 H         1 <0>         0.0695
     29 H4         -0.6753    0.0031    1.7276 H         1 <0>         0.0702
     30 H5         -1.2312   -3.1482   -0.2121 H         1 <0>         0.0748
     31 H6         -1.8242   -2.1995    1.1723 H         1 <0>         0.0858
     32 H7         -3.2099   -3.5416    0.3668 H         1 <0>         0.1377
     33 H8         -5.4900   -4.3753   -0.0382 H         1 <0>         0.1340
     34 H9         -7.0032   -3.1482   -1.5415 H         1 <0>         0.1364
     35 H10        -6.2416   -1.0839   -2.6445 H         1 <0>         0.1438
     36 H11         0.1772   -1.5596   -1.7983 H         1 <0>         0.4055
     37 H12         0.9233   -1.8182   -3.4680 H         1 <0>         0.1560
     38 H13         4.5154   -1.5644   -5.7559 H         1 <0>         0.1712
     39 H14         5.7543   -1.4491   -1.1823 H         1 <0>         0.4163
     40 H15         4.4679   -0.5986   -0.5156 H         1 <0>         0.4215
@<TRIPOS>BOND
     1    1    2 1
     2    1   27 1
     3    1   28 1
     4    1   29 1
     5    2    3 1
     6    2    4 1
     7    2   13 1
     8    4    5 1
     9    4   30 1
    10    4   31 1
    11    5    6 1
    12    6   11 ar
    13    6    7 ar
    14    7    8 ar
    15    7   32 1
    16    8    9 ar
    17    8   33 1
    18    9   10 ar
    19    9   34 1
    20   10   11 ar
    21   10   35 1
    22   11   12 1
    23   13   14 am
    24   13   36 1
    25   14   15 2
    26   14   16 1
    27   16   21 ar
    28   16   17 ar
    29   17   18 ar
    30   17   37 1
    31   18   19 ar
    32   18   26 1
    33   19   20 ar
    34   19   38 1
    35   20   21 ar
    36   20   23 1
    37   21   22 1
    38   22   39 1
    39   22   40 1
    40   23   24 2
    41   23   25 1
@<TRIPOS>MOLECULE
ZINC65136609
   46    47     0     0     0
SMALL
USER_CHARGES

@<TRIPOS>ATOM
      1 C1         -0.0187    1.5258    0.0104 C.3       1 <0>        -0.1543
      2 C2          0.0021   -0.0041    0.0020 C.3       1 <0>        -0.0927
      3 C3         -1.4333   -0.5336    0.0129 C.3       1 <0>        -0.1485
      4 C4          0.7182   -0.4975   -1.2568 C.3       1 <0>        -0.1293
      5 C5          2.1873   -0.0730   -1.2073 C.3       1 <0>         0.1317
      6 N1          2.8730   -0.5455   -2.4126 N.am      1 <0>        -0.7439
      7 C6          4.1840   -0.2863   -2.5874 C.2       1 <0>         0.7137
      8 O1          4.7976    0.3397   -1.7448 O.2       1 <0>        -0.5634
      9 N2          4.8149   -0.7209   -3.6963 N.am      1 <0>        -0.5287
     10 N3          4.1079   -1.4422   -4.6672 N.am      1 <0>        -0.5248
     11 C7          4.7387   -1.8768   -5.7761 C.2       1 <0>         0.5692
     12 O2          5.9214   -1.6430   -5.9338 O.2       1 <0>        -0.5153
     13 C8          3.9938   -2.6368   -6.7990 C.ar      1 <0>        -0.1103
     14 C9          4.6487   -3.0931   -7.9472 C.ar      1 <0>        -0.0454
     15 C10         3.9438   -3.8032   -8.8982 C.ar      1 <0>         0.0767
     16 C11         2.5902   -4.0631   -8.7165 C.ar      1 <0>         0.1080
     17 C12         1.9371   -3.6115   -7.5777 C.ar      1 <0>        -0.0429
     18 C13         2.6351   -2.9059   -6.6188 C.ar      1 <0>        -0.0734
     19 Cl1         0.2467   -3.9394   -7.3572 Cl        1 <0>        -0.0330
     20 O3          1.9073   -4.7660   -9.6645 O.3       1 <0>        -0.3059
     21 C14         1.7207   -4.1067  -10.9182 C.3       1 <0>         0.0595
     22 C15         2.9341   -4.2975  -11.8145 C.3       1 <0>        -0.1903
     23 C16         4.1809   -3.6354  -11.2492 C.3       1 <0>         0.0567
     24 O4          4.5719   -4.2554  -10.0226 O.3       1 <0>        -0.3088
     25 H1          1.0039    1.9031    0.0027 H         1 <0>         0.0588
     26 H2         -0.5459    1.8868   -0.8726 H         1 <0>         0.0555
     27 H3         -0.5289    1.8773    0.9072 H         1 <0>         0.0572
     28 H4          0.5293   -0.3651    0.8851 H         1 <0>         0.0748
     29 H5         -1.9605   -0.1726   -0.8702 H         1 <0>         0.0553
     30 H6         -1.4185   -1.6235    0.0069 H         1 <0>         0.0553
     31 H7         -1.9435   -0.1821    0.9097 H         1 <0>         0.0577
     32 H8          0.6556   -1.5845   -1.3079 H         1 <0>         0.0711
     33 H9          0.2444   -0.0644   -2.1377 H         1 <0>         0.0710
     34 H10         2.2499    1.0140   -1.1561 H         1 <0>         0.0748
     35 H11         2.6611   -0.5061   -0.3263 H         1 <0>         0.0717
     36 H12         2.3835   -1.0449   -3.0848 H         1 <0>         0.3896
     37 H13         5.7584   -0.5344   -3.8221 H         1 <0>         0.4458
     38 H14         3.1643   -1.6287   -4.5414 H         1 <0>         0.4186
     39 H15         5.7001   -2.8909   -8.0893 H         1 <0>         0.1602
     40 H16         2.1295   -2.5581   -5.7301 H         1 <0>         0.1429
     41 H17         0.8411   -4.5189  -11.4128 H         1 <0>         0.1129
     42 H18         1.5673   -3.0417  -10.7441 H         1 <0>         0.0617
     43 H19         3.1229   -5.3647  -11.9309 H         1 <0>         0.0887
     44 H20         2.7204   -3.8697  -12.7940 H         1 <0>         0.0973
     45 H21         4.9929   -3.7241  -11.9709 H         1 <0>         0.1125
     46 H22         3.9761   -2.5801  -11.0685 H         1 <0>         0.0620
@<TRIPOS>BOND
     1    1    2 1
     2    1   25 1
     3    1   26 1
     4    1   27 1
     5    2    3 1
     6    2    4 1
     7    2   28 1
     8    3   29 1
     9    3   30 1
    10    3   31 1
    11    4    5 1
    12    4   32 1
    13    4   33 1
    14    5    6 1
    15    5   34 1
    16    5   35 1
    17    6    7 am
    18    6   36 1
    19    7    8 2
    20    7    9 am
    21    9   10 1
    22    9   37 1
    23   10   11 am
    24   10   38 1
    25   11   12 2
    26   11   13 1
    27   13   18 ar
    28   13   14 ar
    29   14   15 ar
    30   14   39 1
    31   15   24 1
    32   15   16 ar
    33   16   17 ar
    34   16   20 1
    35   17   18 ar
    36   17   19 1
    37   18   40 1
    38   20   21 1
    39   21   22 1
    40   21   41 1
    41   21   42 1
    42   22   23 1
    43   22   43 1
    44   22   44 1
    45   23   24 1
    46   23   45 1
    47   23   46 1
@<TRIPOS>MOLECULE
ZINC01017487
   37    40     0     0     0
SMALL
USER_CHARGES
4-amino-3-(9H-fluoren-9-ylsulfanyl)-6-methyl-1,2,4-triazin-5-one
@<TRIPOS>ATOM
      1 C1          1.6812   11.3634   -0.8610 C.3       1 <0>        -0.0842
      2 C2          1.3523   10.0381   -0.2235 C.2       1 <0>         0.0121
      3 C3          1.7240    9.7794    1.1135 C.2       1 <0>         0.4863
      4 O1          2.3150   10.6178    1.7731 O.2       1 <0>        -0.5069
      5 N1          1.4068    8.5754    1.6429 N.am      1 <0>        -0.3377
      6 C4          0.7462    7.6742    0.8620 C.2       1 <0>         0.2915
      7 N2          0.4303    7.9750   -0.3867 N.2       1 <0>        -0.3227
      8 N3          0.7175    9.1144   -0.9064 N.2       1 <0>        -0.1761
      9 S1          0.3169    6.0962    1.5179 S.3       1 <0>         0.0808
     10 C5         -0.6525    5.4360    0.1394 C.3       1 <0>        -0.0021
     11 C6         -0.8476    3.9490    0.3066 C.ar      1 <0>        -0.0906
     12 C7          0.0447    2.9003    0.3767 C.ar      1 <0>        -0.0826
     13 C8         -0.4184    1.6062    0.5364 C.ar      1 <0>        -0.1118
     14 C9         -1.7769    1.3618    0.6264 C.ar      1 <0>        -0.1045
     15 C10        -2.6771    2.4044    0.5516 C.ar      1 <0>        -0.0954
     16 C11        -2.2168    3.7131    0.3958 C.ar      1 <0>        -0.0376
     17 C12        -2.9477    5.0004    0.2932 C.ar      1 <0>        -0.0492
     18 C13        -2.0351    6.0406    0.1399 C.ar      1 <0>        -0.0826
     19 C14        -2.4767    7.3415    0.0227 C.ar      1 <0>        -0.0859
     20 C15        -3.8320    7.6187    0.0571 C.ar      1 <0>        -0.1103
     21 C16        -4.7463    6.5920    0.2096 C.ar      1 <0>        -0.1095
     22 C17        -4.3134    5.2875    0.3267 C.ar      1 <0>        -0.0922
     23 N4          1.7408    8.2697    2.9317 N.3       1 <0>        -0.5953
     24 H1          2.6596   11.3044   -1.3378 H         1 <0>         0.0885
     25 H2          0.9262   11.6039   -1.6094 H         1 <0>         0.0899
     26 H3          1.6958   12.1405   -0.0968 H         1 <0>         0.0869
     27 H4         -0.1519    5.6448   -0.8061 H         1 <0>         0.1471
     28 H5          1.1058    3.0890    0.3073 H         1 <0>         0.1317
     29 H6          0.2819    0.7858    0.5911 H         1 <0>         0.1333
     30 H7         -2.1343    0.3504    0.7514 H         1 <0>         0.1316
     31 H8         -3.7371    2.2087    0.6176 H         1 <0>         0.1282
     32 H9         -1.7645    8.1445   -0.0964 H         1 <0>         0.1242
     33 H10        -4.1763    8.6382   -0.0348 H         1 <0>         0.1288
     34 H11        -5.8032    6.8125    0.2363 H         1 <0>         0.1303
     35 H12        -5.0307    4.4887    0.4449 H         1 <0>         0.1272
     36 H13         2.2234    9.0385    3.3722 H         1 <0>         0.3917
     37 H14         0.9256    8.0024    3.4628 H         1 <0>         0.3670
@<TRIPOS>BOND
     1    1    2 1
     2    1   24 1
     3    1   25 1
     4    1   26 1
     5    2    8 2
     6    2    3 1
     7    3    4 2
     8    3    5 am
     9    5    6 1
    10    5   23 1
    11    6    7 2
    12    6    9 1
    13    7    8 1
    14    9   10 1
    15   10   18 1
    16   10   11 1
    17   10   27 1
    18   11   16 ar
    19   11   12 ar
    20   12   13 ar
    21   12   28 1
    22   13   14 ar
    23   13   29 1
    24   14   15 ar
    25   14   30 1
    26   15   16 ar
    27   15   31 1
    28   16   17 1
    29   17   22 ar
    30   17   18 ar
    31   18   19 ar
    32   19   20 ar
    33   19   32 1
    34   20   21 ar
    35   20   33 1
    36   21   22 ar
    37   21   34 1
    38   22   35 1
    39   23   36 1
    40   23   37 1
@<TRIPOS>MOLECULE
ZINC13115488
   43    44     0     0     0
SMALL
USER_CHARGES
3-cyclohexyl-1-hydroxy-1-[(5S)-3,4,4-trimethyl-2-thioxo-thiazolidin-5-yl]urea
@<TRIPOS>ATOM
      1 C1         -0.3413    2.6946    1.6495 C.3       1 <0>        -0.1541
      2 C2          0.4198    3.7442    0.8371 C.3       1 <0>         0.1236
      3 C3          1.5334    3.0389    0.0360 C.3       1 <0>         0.1986
      4 H1          2.5263    3.2171    0.4747 H         1 <0>         0.1864
      5 S1          1.0676    3.4928   -1.6780 S.3       1 <0>        -0.0592
      6 C4         -0.3850    4.4659   -1.3313 C.2       1 <0>         0.3341
      7 S2         -1.3980    5.2507   -2.4666 S.2       1 <0>        -0.4606
      8 N1         -0.5199    4.4560    0.0025 N.pl3     1 <0>        -0.5285
      9 C5         -1.6349    5.1769    0.6216 C.3       1 <0>         0.0468
     10 N2          1.4855    1.5876    0.2299 N.am      1 <0>        -0.4710
     11 C6          2.6186    0.9041    0.4859 C.2       1 <0>         0.7036
     12 O1          3.6653    1.5012    0.6476 O.2       1 <0>        -0.5662
     13 N3          2.5914   -0.4412    0.5627 N.am      1 <0>        -0.7446
     14 C7          3.7974   -1.1773    0.9498 C.3       1 <0>         0.1676
     15 C8          4.6700   -1.4118   -0.2849 C.3       1 <0>        -0.1309
     16 C9          5.9296   -2.1806    0.1193 C.3       1 <0>        -0.1185
     17 C10         5.5321   -3.5277    0.7262 C.3       1 <0>        -0.1242
     18 C11         4.6595   -3.2932    1.9609 C.3       1 <0>        -0.1170
     19 C12         3.3999   -2.5244    1.5567 C.3       1 <0>        -0.1256
     20 O2          0.2488    0.9028    0.1483 O.3       1 <0>        -0.3428
     21 C13         1.0651    4.7362    1.8069 C.3       1 <0>        -0.1610
     22 H2          0.3638    2.1447    2.2902 H         1 <0>         0.0778
     23 H3         -0.8397    1.9920    0.9654 H         1 <0>         0.1044
     24 H4         -1.0952    3.1925    2.2770 H         1 <0>         0.0643
     25 H5         -2.2419    5.6554   -0.1611 H         1 <0>         0.1173
     26 H6         -1.2413    5.9463    1.3021 H         1 <0>         0.0834
     27 H7         -2.2587    4.4702    1.1886 H         1 <0>         0.0827
     28 H8          1.6637   -0.9865    0.3347 H         1 <0>         0.4085
     29 H9          4.3300   -0.5612    1.6893 H         1 <0>         0.0898
     30 H10         4.1060   -1.9962   -1.0268 H         1 <0>         0.0648
     31 H11         4.9557   -0.4433   -0.7213 H         1 <0>         0.0696
     32 H12         6.5569   -2.3492   -0.7684 H         1 <0>         0.0671
     33 H13         6.4936   -1.5963    0.8612 H         1 <0>         0.0655
     34 H14         4.9681   -4.1120   -0.0158 H         1 <0>         0.0636
     35 H15         6.4376   -4.0805    1.0168 H         1 <0>         0.0660
     36 H16         4.3738   -4.2617    2.3972 H         1 <0>         0.0697
     37 H17         5.2234   -2.7089    2.7029 H         1 <0>         0.0664
     38 H18         2.7725   -2.3558    2.4444 H         1 <0>         0.0697
     39 H19         2.8359   -3.1087    0.8148 H         1 <0>         0.0705
     40 H20         0.2129   -0.1869    0.2939 H         1 <0>         0.4012
     41 H21         1.6172    5.4988    1.2380 H         1 <0>         0.0742
     42 H22         1.7591    4.2006    2.4714 H         1 <0>         0.0870
     43 H23         0.2830    5.2223    2.4085 H         1 <0>         0.0800
@<TRIPOS>BOND
     1    1    2 1
     2    1   22 1
     3    1   23 1
     4    1   24 1
     5    2    8 1
     6    2    3 1
     7    2   21 1
     8    3    4 1
     9    3    5 1
    10    3   10 1
    11    5    6 1
    12    6    7 2
    13    6    8 1
    14    8    9 1
    15    9   25 1
    16    9   26 1
    17    9   27 1
    18   10   11 am
    19   10   20 1
    20   11   12 2
    21   11   13 am
    22   13   14 1
    23   13   28 1
    24   14   19 1
    25   14   15 1
    26   14   29 1
    27   15   16 1
    28   15   30 1
    29   15   31 1
    30   16   17 1
    31   16   32 1
    32   16   33 1
    33   17   18 1
    34   17   34 1
    35   17   35 1
    36   18   19 1
    37   18   36 1
    38   18   37 1
    39   19   38 1
    40   19   39 1
    41   20   40 1
    42   21   41 1
    43   21   42 1
    44   21   43 1
@<TRIPOS>MOLECULE
ZINC40330359
   40    42     0     0     0
SMALL
USER_CHARGES

@<TRIPOS>ATOM
      1 C1          1.8094   -0.9023   -1.2108 C.ar      1 <0>        -0.1858
      2 C2          2.7843    0.0659   -1.0539 C.ar      1 <0>         0.0347
      3 C3          2.6221    1.0659   -0.1155 C.ar      1 <0>        -0.7529
      4 C4          1.4777    1.0994    0.6717 C.ar      1 <0>         0.3257
      5 C5          0.4999    0.1264    0.5122 C.ar      1 <0>        -0.2059
      6 C6          0.6682   -0.8724   -0.4287 C.ar      1 <0>         0.0645
      7 Cl1        -0.5531   -2.0896   -0.6296 Cl        1 <0>        -0.0520
      8 N1          1.3114    2.1095    1.6220 N.pl3     1 <0>        -0.8662
      9 S1          3.8657    2.2981    0.0838 S.o2      1 <0>         2.6935
     10 O1          4.8971    1.9878   -0.8432 O.2       1 <0>        -0.9451
     11 O2          3.1978    3.5522    0.0887 O.2       1 <0>        -0.9610
     12 N2          4.5128    2.1006    1.5953 N.pl3     1 <0>        -0.9991
     13 C7          4.1030    2.9564    2.7231 C.3       1 <0>         0.0755
     14 C8          5.3574    3.5061    3.4092 C.3       1 <0>         0.0531
     15 O3          6.2572    2.4333    3.7081 O.3       1 <0>        -0.3695
     16 C9          6.7152    1.7357    2.5522 C.3       1 <0>         0.0835
     17 H1          7.1752    2.4435    1.8626 H         1 <0>         0.0670
     18 C10         5.5140    1.0617    1.8684 C.3       1 <0>         0.1277
     19 H2          5.0876    0.3093    2.5319 H         1 <0>         0.0860
     20 C11         5.9842    0.4040    0.5728 C.3       1 <0>        -0.1531
     21 C12         7.0240   -0.6691    0.9109 C.3       1 <0>        -0.1167
     22 C13         8.2118   -0.0357    1.6358 C.3       1 <0>        -0.1202
     23 C14         7.7302    0.6556    2.9189 C.3       1 <0>        -0.1108
     24 H3          1.9370   -1.6808   -1.9484 H         1 <0>         0.1430
     25 H4          3.6738    0.0398   -1.6659 H         1 <0>         0.1530
     26 H5         -0.3906    0.1495    1.1228 H         1 <0>         0.1426
     27 H6          1.9436    2.8438    1.6650 H         1 <0>         0.4026
     28 H7          0.5636    2.0766    2.2390 H         1 <0>         0.4115
     29 H8          3.4973    3.7834    2.3526 H         1 <0>         0.1026
     30 H9          3.5247    2.3687    3.4361 H         1 <0>         0.0825
     31 H10         5.8499    4.2181    2.7469 H         1 <0>         0.0599
     32 H11         5.0737    4.0092    4.3336 H         1 <0>         0.1111
     33 H12         5.1350   -0.0567    0.0681 H         1 <0>         0.0710
     34 H13         6.4331    1.1558   -0.0763 H         1 <0>         0.1136
     35 H14         6.5694   -1.4240    1.5524 H         1 <0>         0.0649
     36 H15         7.3707   -1.1396   -0.0091 H         1 <0>         0.0749
     37 H16         8.9358   -0.8101    1.8891 H         1 <0>         0.0745
     38 H17         8.6836    0.6991    0.9835 H         1 <0>         0.0682
     39 H18         8.5790    1.1105    3.4295 H         1 <0>         0.0773
     40 H19         7.2606   -0.0801    3.5719 H         1 <0>         0.0740
@<TRIPOS>BOND
     1    1    6 ar
     2    1    2 ar
     3    1   24 1
     4    2    3 ar
     5    2   25 1
     6    3    4 ar
     7    3    9 1
     8    4    5 ar
     9    4    8 1
    10    5    6 ar
    11    5   26 1
    12    6    7 1
    13    8   27 1
    14    8   28 1
    15    9   10 2
    16    9   11 2
    17    9   12 1
    18   12   18 1
    19   12   13 1
    20   13   14 1
    21   13   29 1
    22   13   30 1
    23   14   15 1
    24   14   31 1
    25   14   32 1
    26   15   16 1
    27   16   17 1
    28   16   23 1
    29   16   18 1
    30   18   19 1
    31   18   20 1
    32   20   21 1
    33   20   33 1
    34   20   34 1
    35   21   22 1
    36   21   35 1
    37   21   36 1
    38   22   23 1
    39   22   37 1
    40   22   38 1
    41   23   39 1
    42   23   40 1
@<TRIPOS>MOLECULE
ZINC53993835
   40    42     0     0     0
SMALL
USER_CHARGES

@<TRIPOS>ATOM
      1 C1         -0.0184    1.5028    0.0103 C.3       1 <0>        -0.1263
      2 C2          0.0021   -0.0041    0.0020 C.ar      1 <0>        -0.0294
      3 C3          0.0057   -0.6887   -1.1989 C.ar      1 <0>        -0.1407
      4 C4          0.0245   -2.0709   -1.2065 C.ar      1 <0>        -0.0146
      5 C5          0.0400   -2.7685   -0.0132 C.ar      1 <0>        -0.6649
      6 C6          0.0373   -2.0839    1.1877 C.ar      1 <0>        -0.0210
      7 C7          0.0229   -0.7016    1.1953 C.ar      1 <0>        -0.1418
      8 S1          0.0628   -4.5303   -0.0229 S.o2      1 <0>         2.6234
      9 O1         -0.4759   -4.9503    1.2232 O.2       1 <0>        -0.9528
     10 O2         -0.4897   -4.9367   -1.2674 O.2       1 <0>        -0.9348
     11 C8          1.7525   -5.0294   -0.0350 C.2       1 <0>        -0.8581
     12 C9          2.5372   -5.2506   -1.1705 C.2       1 <0>         0.1947
     13 N1          3.7352   -5.6082   -0.7838 N.2       1 <0>        -0.2872
     14 N2          3.7608   -5.6290    0.6165 N.pl3     1 <0>        -0.3469
     15 C10         2.5275   -5.2625    1.0602 C.2       1 <0>         0.4865
     16 N3          2.1302   -5.1502    2.3893 N.pl3     1 <0>        -0.8385
     17 C11         4.8616   -5.9618    1.4177 C.ar      1 <0>         0.1509
     18 C12         5.0582   -5.3180    2.6320 C.ar      1 <0>        -0.1492
     19 C13         6.1437   -5.6484    3.4195 C.ar      1 <0>        -0.0916
     20 C14         7.0345   -6.6190    2.9994 C.ar      1 <0>        -0.1201
     21 C15         6.8417   -7.2617    1.7903 C.ar      1 <0>        -0.0938
     22 C16         5.7547   -6.9399    1.0012 C.ar      1 <0>        -0.1074
     23 C17         2.0804   -5.1030   -2.5990 C.3       1 <0>        -0.1118
     24 H1          1.0042    1.8801    0.0026 H         1 <0>         0.0794
     25 H2         -0.5455    1.8639   -0.8728 H         1 <0>         0.0742
     26 H3         -0.5286    1.8543    0.9071 H         1 <0>         0.0733
     27 H4         -0.0064   -0.1436   -2.1312 H         1 <0>         0.1346
     28 H5          0.0266   -2.6057   -2.1448 H         1 <0>         0.1440
     29 H6          0.0491   -2.6289    2.1200 H         1 <0>         0.1366
     30 H7          0.0245   -0.1667    2.1335 H         1 <0>         0.1328
     31 H8          1.2226   -4.8830    2.6033 H         1 <0>         0.4305
     32 H9          2.7608   -5.3392    3.1017 H         1 <0>         0.4103
     33 H10         4.3631   -4.5593    2.9603 H         1 <0>         0.1291
     34 H11         6.2971   -5.1480    4.3642 H         1 <0>         0.1362
     35 H12         7.8827   -6.8755    3.6167 H         1 <0>         0.1329
     36 H13         7.5393   -8.0191    1.4646 H         1 <0>         0.1360
     37 H14         5.6022   -7.4453    0.0590 H         1 <0>         0.1371
     38 H15         2.2610   -4.0817   -2.9345 H         1 <0>         0.0878
     39 H16         2.6348   -5.7965   -3.2313 H         1 <0>         0.0861
     40 H17         1.0150   -5.3239   -2.6644 H         1 <0>         0.1146
@<TRIPOS>BOND
     1    1    2 1
     2    1   24 1
     3    1   25 1
     4    1   26 1
     5    2    7 ar
     6    2    3 ar
     7    3    4 ar
     8    3   27 1
     9    4    5 ar
    10    4   28 1
    11    5    6 ar
    12    5    8 1
    13    6    7 ar
    14    6   29 1
    15    7   30 1
    16    8    9 2
    17    8   10 2
    18    8   11 1
    19   11   15 2
    20   11   12 1
    21   12   13 2
    22   12   23 1
    23   13   14 1
    24   14   15 1
    25   14   17 1
    26   15   16 1
    27   16   31 1
    28   16   32 1
    29   17   22 ar
    30   17   18 ar
    31   18   19 ar
    32   18   33 1
    33   19   20 ar
    34   19   34 1
    35   20   21 ar
    36   20   35 1
    37   21   22 ar
    38   21   36 1
    39   22   37 1
    40   23   38 1
    41   23   39 1
    42   23   40 1
@<TRIPOS>MOLECULE
ZINC00052177
   38    41     0     0     0
SMALL
USER_CHARGES

@<TRIPOS>ATOM
      1 C1         -0.0167    1.3790    0.0096 C.ar      1 <0>        -0.1060
      2 C2          1.1687    2.0918    0.0021 C.ar      1 <0>        -0.1222
      3 C3          2.3774    1.4256   -0.0130 C.ar      1 <0>        -0.0867
      4 C4          2.4021    0.0326   -0.0207 C.ar      1 <0>        -0.0268
      5 C5          1.2052   -0.6804   -0.0131 C.ar      1 <0>        -0.0865
      6 C6          0.0021   -0.0041    0.0020 C.ar      1 <0>        -0.1143
      7 C7          3.6989   -0.6892   -0.0375 C.2       1 <0>         0.1643
      8 C8          3.9720   -1.9046    0.5971 C.2       1 <0>        -0.2501
      9 C9          5.2718   -2.2324    0.3406 C.2       1 <0>         0.2771
     10 N1          5.7976   -1.2557   -0.4275 N.pl3     1 <0>        -0.4442
     11 H1          6.7067   -1.2219   -0.7640 H         1 <0>         0.4492
     12 N2          4.7960   -0.2999   -0.6587 N.2       1 <0>        -0.2480
     13 O1          5.8488   -3.3645    0.8153 O.3       1 <0>        -0.2287
     14 C10         5.0372   -4.3122    1.3269 C.2       1 <0>         0.4405
     15 C11         3.7375   -4.1036    1.6333 C.2       1 <0>        -0.2567
     16 C12         3.0641   -2.7687    1.4335 C.3       1 <0>         0.1182
     17 H2          2.1137   -2.9098    0.9188 H         1 <0>         0.1019
     18 C13         2.8272   -2.1131    2.7696 C.ar      1 <0>        -0.1065
     19 C14         3.8941   -1.8414    3.6053 C.ar      1 <0>        -0.0735
     20 C15         3.6771   -1.2401    4.8308 C.ar      1 <0>        -0.1302
     21 C16         2.3928   -0.9097    5.2222 C.ar      1 <0>        -0.0908
     22 C17         1.3247   -1.1800    4.3883 C.ar      1 <0>        -0.1526
     23 C18         1.5415   -1.7776    3.1580 C.ar      1 <0>         0.1115
     24 F1          0.4984   -2.0380    2.3399 F         1 <0>        -0.1337
     25 C19         2.9717   -5.1895    2.1672 C.1       1 <0>         0.2684
     26 N3          2.3642   -6.0510    2.5906 N.1       1 <0>        -0.4328
     27 N4          5.5614   -5.5613    1.5489 N.pl3     1 <0>        -0.8293
     28 H3         -0.9602    1.9042    0.0260 H         1 <0>         0.1244
     29 H4          1.1483    3.1716    0.0078 H         1 <0>         0.1262
     30 H5          3.3023    1.9832   -0.0192 H         1 <0>         0.1267
     31 H6          1.2187   -1.7603   -0.0194 H         1 <0>         0.1272
     32 H7         -0.9264   -0.5558    0.0083 H         1 <0>         0.1272
     33 H8          4.8976   -2.0993    3.3007 H         1 <0>         0.1218
     34 H9          4.5113   -1.0285    5.4832 H         1 <0>         0.1277
     35 H10         2.2244   -0.4406    6.1803 H         1 <0>         0.1314
     36 H11         0.3216   -0.9221    4.6944 H         1 <0>         0.1349
     37 H12         6.4910   -5.7416    1.3386 H         1 <0>         0.4122
     38 H13         5.0022   -6.2637    1.9161 H         1 <0>         0.4287
@<TRIPOS>BOND
     1    1    6 ar
     2    1    2 ar
     3    1   28 1
     4    2    3 ar
     5    2   29 1
     6    3    4 ar
     7    3   30 1
     8    4    5 ar
     9    4    7 1
    10    5    6 ar
    11    5   31 1
    12    6   32 1
    13    7   12 2
    14    7    8 1
    15    8   16 1
    16    8    9 2
    17    9   10 1
    18    9   13 1
    19   10   11 1
    20   10   12 1
    21   13   14 1
    22   14   15 2
    23   14   27 1
    24   15   16 1
    25   15   25 1
    26   16   17 1
    27   16   18 1
    28   18   23 ar
    29   18   19 ar
    30   19   20 ar
    31   19   33 1
    32   20   21 ar
    33   20   34 1
    34   21   22 ar
    35   21   35 1
    36   22   23 ar
    37   22   36 1
    38   23   24 1
    39   25   26 3
    40   27   37 1
    41   27   38 1
@<TRIPOS>MOLECULE
ZINC02396212
   52    55     0     0     0
SMALL
USER_CHARGES
N-(3-cyano-6-tert-butyl-4,5,6,7-tetrahydrobenzothiophen-2-yl)-2-[[5-(2-furyl)-1,3,4-oxadiazol-2-yl]sulfanyl]acetamide
@<TRIPOS>ATOM
      1 C1         -0.8930   -8.6377   -1.0938 C.3       1 <0>        -0.1490
      2 C2          0.5598   -8.4785   -0.6411 C.3       1 <0>        -0.0625
      3 C3          1.4475   -9.4463   -1.4260 C.3       1 <0>        -0.1455
      4 C4          0.6651   -8.7878    0.8536 C.3       1 <0>        -0.1462
      5 C5          1.0195   -7.0420   -0.8982 C.3       1 <0>        -0.0703
      6 H1          2.0560   -6.9278   -0.5808 H         1 <0>         0.0782
      7 C6          0.8990   -6.7240   -2.3914 C.3       1 <0>        -0.1186
      8 C7          1.5820   -5.3895   -2.6960 C.3       1 <0>        -0.0615
      9 C8          1.0351   -4.3309   -1.7463 C.2       1 <0>        -0.0619
     10 C9          0.3956   -4.6807   -0.6083 C.2       1 <0>        -0.1987
     11 S1         -0.0495   -3.1443    0.1503 S.3       1 <0>         0.2585
     12 C10         0.6039   -2.0524   -1.0256 C.2       1 <0>         0.0812
     13 C11         1.1450   -2.9015   -1.9793 C.2       1 <0>        -0.1187
     14 C12         1.7922   -2.3877   -3.1488 C.1       1 <0>         0.2648
     15 N1          2.3057   -1.9801   -4.0765 N.1       1 <0>        -0.4190
     16 N2          0.5851   -0.6645   -1.0180 N.am      1 <0>        -0.6112
     17 C13         0.0021   -0.0041    0.0020 C.2       1 <0>         0.5359
     18 O1         -0.5061   -0.6225    0.9132 O.2       1 <0>        -0.4792
     19 C14        -0.0184    1.5028    0.0103 C.3       1 <0>        -0.1681
     20 S2         -0.8656    2.0865    1.4995 S.3       1 <0>         0.1740
     21 C15        -0.7466    3.8276    1.2566 C.2       1 <0>         0.1205
     22 N3         -0.1735    4.4326    0.2424 N.2       1 <0>        -0.2804
     23 N4         -0.2755    5.7066    0.3893 N.2       1 <0>        -0.2443
     24 C16        -0.9109    5.9668    1.5089 C.2       1 <0>         0.2538
     25 O2         -1.2221    4.7815    2.0808 O.3       1 <0>        -0.1925
     26 C17        -1.2253    7.3000    2.0421 C.2       1 <0>         0.0255
     27 C18        -0.9079    8.4908    1.4592 C.2       1 <0>        -0.1100
     28 C19        -1.3985    9.5010    2.3083 C.2       1 <0>        -0.2169
     29 C20        -1.9846    8.8876    3.3560 C.2       1 <0>         0.0071
     30 O3         -1.8829    7.5586    3.1900 O.3       1 <0>        -0.1632
     31 C21         0.1301   -6.0683   -0.1115 C.3       1 <0>        -0.0366
     32 H2         -0.9680   -8.4173   -2.1586 H         1 <0>         0.0585
     33 H3         -1.2206   -9.6611   -0.9106 H         1 <0>         0.0548
     34 H4         -1.5255   -7.9482   -0.5346 H         1 <0>         0.0589
     35 H5          2.4825   -9.3328   -1.1035 H         1 <0>         0.0552
     36 H6          1.1200  -10.4697   -1.2428 H         1 <0>         0.0555
     37 H7          1.3725   -9.2259   -2.4908 H         1 <0>         0.0590
     38 H8          0.0326   -8.0983    1.4128 H         1 <0>         0.0579
     39 H9          0.3375   -9.8112    1.0368 H         1 <0>         0.0556
     40 H10         1.7001   -8.6744    1.1761 H         1 <0>         0.0556
     41 H11         1.3759   -7.5152   -2.9698 H         1 <0>         0.0767
     42 H12        -0.1545   -6.6622   -2.6645 H         1 <0>         0.0708
     43 H13         2.6580   -5.4886   -2.5522 H         1 <0>         0.0802
     44 H14         1.3762   -5.1005   -3.7266 H         1 <0>         0.0749
     45 H15         0.9915   -0.1699   -1.7467 H         1 <0>         0.4263
     46 H16         1.0042    1.8801    0.0026 H         1 <0>         0.1435
     47 H17        -0.5455    1.8639   -0.8728 H         1 <0>         0.1434
     48 H18        -0.3824    8.6319    0.5262 H         1 <0>         0.1682
     49 H19        -1.3195   10.5664    2.1504 H         1 <0>         0.1656
     50 H20        -2.4608    9.3830    4.1892 H         1 <0>         0.2186
     51 H21         0.3679   -6.1299    0.9505 H         1 <0>         0.0849
     52 H22        -0.9189   -6.3199   -0.2680 H         1 <0>         0.0909
@<TRIPOS>BOND
     1    1    2 1
     2    1   32 1
     3    1   33 1
     4    1   34 1
     5    2    3 1
     6    2    4 1
     7    2    5 1
     8    3   35 1
     9    3   36 1
    10    3   37 1
    11    4   38 1
    12    4   39 1
    13    4   40 1
    14    5    6 1
    15    5   31 1
    16    5    7 1
    17    7    8 1
    18    7   41 1
    19    7   42 1
    20    8    9 1
    21    8   43 1
    22    8   44 1
    23    9   13 1
    24    9   10 2
    25   10   11 1
    26   10   31 1
    27   11   12 1
    28   12   13 2
    29   12   16 1
    30   13   14 1
    31   14   15 3
    32   16   17 am
    33   16   45 1
    34   17   18 2
    35   17   19 1
    36   19   20 1
    37   19   46 1
    38   19   47 1
    39   20   21 1
    40   21   25 1
    41   21   22 2
    42   22   23 1
    43   23   24 2
    44   24   25 1
    45   24   26 1
    46   26   30 1
    47   26   27 2
    48   27   28 1
    49   27   48 1
    50   28   29 2
    51   28   49 1
    52   29   30 1
    53   29   50 1
    54   31   51 1
    55   31   52 1
@<TRIPOS>MOLECULE
ZINC10355742
   58    61     0     0     0
SMALL
USER_CHARGES
methyl 4-(5-methoxy-2-methyl-2,3-dihydrobenzofuran-6-yl)-1-(4-methoxyphenyl)-6-methyl-2-thioxo-3,4-dihydropyrimidine-5-carboxylate
@<TRIPOS>ATOM
      1 C1          3.3429   -7.2053   -2.2333 C.3       1 <0>        -0.1507
      2 C2          3.7298   -5.9092   -1.5184 C.3       1 <0>         0.0783
      3 H1          4.5062   -6.0935   -0.7758 H         1 <0>         0.0874
      4 C3          4.1880   -4.8378   -2.5359 C.3       1 <0>        -0.1099
      5 C4          3.6417   -3.5649   -1.9183 C.ar      1 <0>        -0.1241
      6 C5          3.9179   -2.2350   -2.1469 C.ar      1 <0>        -0.1612
      7 C6          3.2593   -1.2555   -1.4170 C.ar      1 <0>         0.1240
      8 C7          2.3324   -1.6248   -0.4532 C.ar      1 <0>        -0.1139
      9 C8          2.0550   -2.9570   -0.2292 C.ar      1 <0>        -0.0569
     10 C9          2.7079   -3.9441   -0.9632 C.ar      1 <0>         0.0712
     11 O1          2.5784   -5.2993   -0.9109 O.3       1 <0>        -0.2992
     12 C10         1.6209   -0.5652    0.3482 C.3       1 <0>         0.2327
     13 H2          1.1250   -1.0579    1.1845 H         1 <0>         0.1019
     14 C11         0.5518    0.0480   -0.5334 C.2       1 <0>        -0.2618
     15 C12         0.6055    1.3802   -0.7525 C.2       1 <0>         0.2515
     16 N1          1.5905    2.1465   -0.1976 N.pl3     1 <0>        -0.4430
     17 C13         2.5583    1.6570    0.5877 C.2       1 <0>         0.5671
     18 S1          3.7340    2.7296    1.2188 S.2       1 <0>        -0.5859
     19 N2          2.6375    0.3478    0.8972 N.pl3     1 <0>        -0.6383
     20 C14         1.5881    3.5227   -0.4652 C.ar      1 <0>         0.0794
     21 C15         2.3490    4.0282   -1.5108 C.ar      1 <0>        -0.0384
     22 C16         2.3417    5.3830   -1.7775 C.ar      1 <0>        -0.1981
     23 C17         1.5833    6.2404   -0.9937 C.ar      1 <0>         0.1502
     24 C18         0.8274    5.7367    0.0548 C.ar      1 <0>        -0.1393
     25 C19         0.8293    4.3814    0.3189 C.ar      1 <0>        -0.0480
     26 O2          1.5807    7.5750   -1.2535 O.3       1 <0>        -0.3124
     27 C20         2.3819    8.0244   -2.3481 C.3       1 <0>         0.0243
     28 C21        -0.4346    2.0300   -1.6283 C.3       1 <0>        -0.1372
     29 C22        -0.4671   -0.7470   -1.1075 C.2       1 <0>         0.5341
     30 O3         -1.3779   -0.2204   -1.7190 O.2       1 <0>        -0.5095
     31 O4         -0.4294   -2.0897   -0.9772 O.3       1 <0>        -0.3426
     32 C23        -1.4289   -2.8373   -1.6730 C.3       1 <0>         0.0367
     33 O5          3.5250    0.0590   -1.6416 O.3       1 <0>        -0.3103
     34 C24         4.4346    0.3653   -2.7003 C.3       1 <0>         0.0288
     35 H3          2.5906   -6.9910   -2.9924 H         1 <0>         0.0670
     36 H4          4.2249   -7.6360   -2.7074 H         1 <0>         0.0794
     37 H5          2.9376   -7.9124   -1.5096 H         1 <0>         0.0709
     38 H6          5.2754   -4.8031   -2.6020 H         1 <0>         0.0927
     39 H7          3.7451   -5.0165   -3.5158 H         1 <0>         0.0946
     40 H8          4.6429   -1.9546   -2.8967 H         1 <0>         0.1312
     41 H9          1.3281   -3.2360    0.5193 H         1 <0>         0.1402
     42 H10         3.3472    0.0148    1.4685 H         1 <0>         0.4452
     43 H11         2.9431    3.3614   -2.1181 H         1 <0>         0.1270
     44 H12         2.9300    5.7758   -2.5936 H         1 <0>         0.1369
     45 H13         0.2375    6.4047    0.6649 H         1 <0>         0.1413
     46 H14         0.2405    3.9893    1.1350 H         1 <0>         0.1332
     47 H15         3.4245    7.7635   -2.1664 H         1 <0>         0.0591
     48 H16         2.0425    7.5464   -3.2670 H         1 <0>         0.0578
     49 H17         2.2897    9.1061   -2.4457 H         1 <0>         0.1033
     50 H18        -1.3169    2.2636   -1.0324 H         1 <0>         0.1020
     51 H19        -0.0295    2.9484   -2.0532 H         1 <0>         0.0773
     52 H20        -0.7097    1.3480   -2.4329 H         1 <0>         0.1225
     53 H21        -1.2420   -3.9032   -1.5423 H         1 <0>         0.1015
     54 H22        -2.4121   -2.5892   -1.2734 H         1 <0>         0.0614
     55 H23        -1.3948   -2.5899   -2.7340 H         1 <0>         0.0587
     56 H24         5.4080   -0.0738   -2.4815 H         1 <0>         0.0575
     57 H25         4.0537   -0.0434   -3.6362 H         1 <0>         0.0548
     58 H26         4.5360    1.4468   -2.7907 H         1 <0>         0.0980
@<TRIPOS>BOND
     1    1    2 1
     2    1   35 1
     3    1   36 1
     4    1   37 1
     5    2    3 1
     6    2   11 1
     7    2    4 1
     8    4    5 1
     9    4   38 1
    10    4   39 1
    11    5   10 ar
    12    5    6 ar
    13    6    7 ar
    14    6   40 1
    15    7    8 ar
    16    7   33 1
    17    8    9 ar
    18    8   12 1
    19    9   10 ar
    20    9   41 1
    21   10   11 1
    22   12   13 1
    23   12   19 1
    24   12   14 1
    25   14   15 2
    26   14   29 1
    27   15   16 1
    28   15   28 1
    29   16   17 1
    30   16   20 1
    31   17   18 2
    32   17   19 1
    33   19   42 1
    34   20   25 ar
    35   20   21 ar
    36   21   22 ar
    37   21   43 1
    38   22   23 ar
    39   22   44 1
    40   23   24 ar
    41   23   26 1
    42   24   25 ar
    43   24   45 1
    44   25   46 1
    45   26   27 1
    46   27   47 1
    47   27   48 1
    48   27   49 1
    49   28   50 1
    50   28   51 1
    51   28   52 1
    52   29   30 2
    53   29   31 1
    54   31   32 1
    55   32   53 1
    56   32   54 1
    57   32   55 1
    58   33   34 1
    59   34   56 1
    60   34   57 1
    61   34   58 1
@<TRIPOS>MOLECULE
ZINC01213077
   53    56     0     0     0
SMALL
USER_CHARGES
benzyl (4R)-4-(2-chloro-5-nitro-phenyl)-2-methyl-5-oxo-4,6,7,8-tetrahydro-1H-quinoline-3-carboxylate
@<TRIPOS>ATOM
      1 C1          0.0920    1.9806   -4.9029 C.3       1 <0>        -0.1342
      2 C2         -0.6745    2.0137   -3.6058 C.2       1 <0>         0.2012
      3 C3         -1.9988    2.2441   -3.6185 C.2       1 <0>        -0.2434
      4 C4         -2.7928    2.2936   -2.3463 C.3       1 <0>         0.0827
      5 H1         -3.7308    1.7410   -2.5037 H         1 <0>         0.1101
      6 C5         -2.0373    1.6496   -1.2111 C.2       1 <0>        -0.2913
      7 C6         -0.7065    1.4414   -1.2990 C.2       1 <0>         0.2323
      8 N1         -0.0185    1.8093   -2.4241 N.pl3     1 <0>        -0.6460
      9 C7          0.0558    0.7973   -0.1676 C.3       1 <0>        -0.0993
     10 C8         -0.6135    1.1433    1.1644 C.3       1 <0>        -0.1136
     11 C9         -2.0646    0.6540    1.1209 C.3       1 <0>        -0.1689
     12 C10        -2.7554    1.2777   -0.0610 C.2       1 <0>         0.3997
     13 O1         -3.9556    1.4631   -0.0211 O.2       1 <0>        -0.4626
     14 C11        -3.0790    3.7314   -1.9973 C.ar      1 <0>        -0.0621
     15 C12        -2.0355    4.6031   -1.7477 C.ar      1 <0>        -0.0249
     16 C13        -2.2978    5.9220   -1.4281 C.ar      1 <0>        -0.0435
     17 C14        -3.6039    6.3703   -1.3579 C.ar      1 <0>        -0.0450
     18 C15        -4.6478    5.4998   -1.6068 C.ar      1 <0>        -0.1100
     19 C16        -4.3857    4.1807   -1.9324 C.ar      1 <0>         0.0235
     20 Cl1        -5.6964    3.0883   -2.2527 Cl        1 <0>        -0.0221
     21 N2         -1.1802    6.8546   -1.1605 N.pl3     1 <0>         0.0310
     22 O2         -0.0296    6.4598   -1.2219 O.2       1 <0>        -0.1598
     23 O3         -1.4110    8.0169   -0.8789 O.3       1 <0>        -0.1545
     24 C17        -2.6562    2.4441   -4.8548 C.2       1 <0>         0.5320
     25 O4         -3.3593    1.5662   -5.3191 O.2       1 <0>        -0.4921
     26 O5         -2.5038    3.6087   -5.5194 O.3       1 <0>        -0.3419
     27 C18        -3.1970    3.7421   -6.7619 C.3       1 <0>         0.1024
     28 C19        -2.9093    5.0975   -7.3546 C.ar      1 <0>        -0.0975
     29 C20        -3.7271    6.1708   -7.0543 C.ar      1 <0>        -0.0956
     30 C21        -3.4604    7.4151   -7.5941 C.ar      1 <0>        -0.1213
     31 C22        -2.3819    7.5839   -8.4421 C.ar      1 <0>        -0.1079
     32 C23        -1.5675    6.5093   -8.7469 C.ar      1 <0>        -0.1218
     33 C24        -1.8311    5.2662   -8.2030 C.ar      1 <0>        -0.0960
     34 H2         -0.5968    2.1643   -5.7406 H         1 <0>         0.0838
     35 H3          0.5633    0.9942   -5.0252 H         1 <0>         0.0914
     36 H4          0.8690    2.7591   -4.8896 H         1 <0>         0.0945
     37 H5          1.0724    1.9402   -2.3708 H         1 <0>         0.4496
     38 H6          0.0591   -0.2944   -0.3024 H         1 <0>         0.1050
     39 H7          1.0909    1.1695   -0.1642 H         1 <0>         0.0945
     40 H8         -0.0746    0.6475    1.9852 H         1 <0>         0.0893
     41 H9         -0.5890    2.2327    1.3150 H         1 <0>         0.0751
     42 H10        -2.0793   -0.4416    1.0240 H         1 <0>         0.1025
     43 H11        -2.5783    0.9470    2.0484 H         1 <0>         0.0986
     44 H12        -1.0151    4.2534   -1.8021 H         1 <0>         0.1519
     45 H13        -3.8082    7.4010   -1.1081 H         1 <0>         0.1626
     46 H14        -5.6680    5.8501   -1.5519 H         1 <0>         0.1590
     47 H15        -2.8588    2.9589   -7.4563 H         1 <0>         0.0793
     48 H16        -4.2787    3.6386   -6.5912 H         1 <0>         0.0789
     49 H17        -4.5721    6.0380   -6.3950 H         1 <0>         0.1226
     50 H18        -4.0969    8.2546   -7.3563 H         1 <0>         0.1260
     51 H19        -2.1757    8.5553   -8.8668 H         1 <0>         0.1256
     52 H20        -0.7250    6.6411   -9.4097 H         1 <0>         0.1264
     53 H21        -1.1948    4.4266   -8.4411 H         1 <0>         0.1237
@<TRIPOS>BOND
     1    1    2 1
     2    1   34 1
     3    1   35 1
     4    1   36 1
     5    2    8 1
     6    2    3 2
     7    3    4 1
     8    3   24 1
     9    4    5 1
    10    4    6 1
    11    4   14 1
    12    6   12 1
    13    6    7 2
    14    7    8 1
    15    7    9 1
    16    8   37 1
    17    9   10 1
    18    9   38 1
    19    9   39 1
    20   10   11 1
    21   10   40 1
    22   10   41 1
    23   11   12 1
    24   11   42 1
    25   11   43 1
    26   12   13 2
    27   14   19 ar
    28   14   15 ar
    29   15   16 ar
    30   15   44 1
    31   16   17 ar
    32   16   21 1
    33   17   18 ar
    34   17   45 1
    35   18   19 ar
    36   18   46 1
    37   19   20 1
    38   21   22 2
    39   21   23 1
    40   24   25 2
    41   24   26 1
    42   26   27 1
    43   27   28 1
    44   27   47 1
    45   27   48 1
    46   28   33 ar
    47   28   29 ar
    48   29   30 ar
    49   29   49 1
    50   30   31 ar
    51   30   50 1
    52   31   32 ar
    53   31   51 1
    54   32   33 ar
    55   32   52 1
    56   33   53 1
@<TRIPOS>MOLECULE
ZINC39232765
   45    48     0     0     0
SMALL
USER_CHARGES

@<TRIPOS>ATOM
      1 C1         -0.0187    1.5258    0.0104 C.3       1 <0>        -0.1479
      2 C2          0.0021   -0.0041    0.0020 C.3       1 <0>        -0.0924
      3 C3          0.7421   -0.5109    1.2415 C.3       1 <0>        -0.1525
      4 C4         -1.4333   -0.5336    0.0129 C.3       1 <0>        -0.0517
      5 C5         -1.4159   -2.0348   -0.1192 C.2       1 <0>        -0.0163
      6 C6         -1.4647   -2.8865    0.9074 C.2       1 <0>        -0.1545
      7 C7         -1.4203   -4.2544    0.2498 C.3       1 <0>        -0.0290
      8 H1         -0.5350   -4.8058    0.5665 H         1 <0>         0.1550
      9 N1         -1.3461   -3.9297   -1.1850 N.2       1 <0>        -0.1281
     10 N2         -1.3546   -2.7011   -1.2934 N.2       1 <0>        -0.1514
     11 C8         -2.6904   -5.0474    0.5640 C.3       1 <0>         0.1599
     12 H2         -3.5811   -4.5258    0.2137 H         1 <0>         0.1641
     13 N3         -2.6190   -6.4315    0.0243 N.3       1 <0>        -0.4442
     14 N4         -2.1118   -7.3595    0.8845 N.pl3     1 <0>        -0.3463
     15 C9         -1.5345   -8.6141    0.8009 C.2       1 <0>         0.2340
     16 N5         -1.2918   -9.0257    2.0099 N.2       1 <0>        -0.2368
     17 N6         -1.6517   -8.1310    2.8618 N.2       1 <0>        -0.2208
     18 C10        -2.1322   -7.1048    2.2319 C.2       1 <0>         0.1556
     19 S1         -2.8068   -5.4599    2.3590 S.3       1 <0>         0.0003
     20 C11        -1.2396   -9.3708   -0.4685 C.3       1 <0>         0.1498
     21 O1          0.0752   -9.0443   -0.9232 O.3       1 <0>        -0.3017
     22 C12         0.5004   -9.6461   -2.0653 C.ar      1 <0>         0.1487
     23 C13        -0.3331  -10.5282   -2.7373 C.ar      1 <0>        -0.2033
     24 C14         0.1009  -11.1389   -3.8979 C.ar      1 <0>        -0.0471
     25 C15         1.3658  -10.8712   -4.3901 C.ar      1 <0>        -0.1272
     26 C16         2.1988   -9.9922   -3.7212 C.ar      1 <0>        -0.0483
     27 C17         1.7663   -9.3747   -2.5636 C.ar      1 <0>        -0.1399
     28 Br1         1.9574  -11.7086   -5.9791 Br        1 <0>        -0.0471
     29 H3          1.0039    1.9031    0.0027 H         1 <0>         0.0589
     30 H4         -0.5459    1.8868   -0.8726 H         1 <0>         0.0584
     31 H5         -0.5289    1.8773    0.9072 H         1 <0>         0.0569
     32 H6          0.5123   -0.3556   -0.8948 H         1 <0>         0.0755
     33 H7          1.7647   -0.1336    1.2338 H         1 <0>         0.0586
     34 H8          0.2319   -0.1594    2.1383 H         1 <0>         0.0577
     35 H9          0.7568   -1.6008    1.2356 H         1 <0>         0.0503
     36 H10        -1.9156   -0.2570    0.9504 H         1 <0>         0.0855
     37 H11        -1.9862   -0.1019   -0.8214 H         1 <0>         0.0887
     38 H12        -1.5221   -2.6562    1.9610 H         1 <0>         0.1801
     39 H13        -3.5139   -6.7250   -0.3378 H         1 <0>         0.3886
     40 H14        -1.3018  -10.4418   -0.2758 H         1 <0>         0.1093
     41 H15        -1.9669   -9.0962   -1.2325 H         1 <0>         0.0922
     42 H16        -1.3205  -10.7377   -2.3532 H         1 <0>         0.1375
     43 H17        -0.5475  -11.8259   -4.4212 H         1 <0>         0.1379
     44 H18         3.1860   -9.7849   -4.1069 H         1 <0>         0.1419
     45 H19         2.4149   -8.6846   -2.0445 H         1 <0>         0.1409
@<TRIPOS>BOND
     1    1    2 1
     2    1   29 1
     3    1   30 1
     4    1   31 1
     5    2    3 1
     6    2    4 1
     7    2   32 1
     8    3   33 1
     9    3   34 1
    10    3   35 1
    11    4    5 1
    12    4   36 1
    13    4   37 1
    14    5   10 1
    15    5    6 2
    16    6    7 1
    17    6   38 1
    18    7    8 1
    19    7    9 1
    20    7   11 1
    21    9   10 2
    22   11   12 1
    23   11   19 1
    24   11   13 1
    25   13   14 1
    26   13   39 1
    27   14   18 1
    28   14   15 1
    29   15   16 2
    30   15   20 1
    31   16   17 1
    32   17   18 2
    33   18   19 1
    34   20   21 1
    35   20   40 1
    36   20   41 1
    37   21   22 1
    38   22   27 ar
    39   22   23 ar
    40   23   24 ar
    41   23   42 1
    42   24   25 ar
    43   24   43 1
    44   25   26 ar
    45   25   28 1
    46   26   27 ar
    47   26   44 1
    48   27   45 1
@<TRIPOS>MOLECULE
ZINC59427241
   45    47     0     0     0
SMALL
USER_CHARGES

@<TRIPOS>ATOM
      1 C1         -0.0184    1.5028    0.0103 C.3       1 <0>        -0.0903
      2 C2          0.0021   -0.0041    0.0020 C.2       1 <0>         0.0259
      3 C3          0.0081   -0.7807   -1.0970 C.2       1 <0>        -0.1541
      4 C4          0.0289   -2.1695   -0.6282 C.2       1 <0>        -0.1438
      5 C5          0.0337   -2.1130    0.7364 C.2       1 <0>         0.0972
      6 N1          0.0235   -0.8042    1.1086 N.pl3     1 <0>        -0.4105
      7 C6          0.0298   -0.3450    2.4326 C.ar      1 <0>         0.1232
      8 C7          1.1326   -0.5765    3.2441 C.ar      1 <0>        -0.0588
      9 C8          1.1360   -0.1224    4.5482 C.ar      1 <0>        -0.0999
     10 C9          0.0424    0.5621    5.0465 C.ar      1 <0>        -0.0470
     11 C10        -1.0571    0.7942    4.2410 C.ar      1 <0>        -0.0360
     12 C11        -1.0641    0.3473    2.9339 C.ar      1 <0>        -0.0508
     13 N2         -2.2258    1.5267    4.7782 N.pl3     1 <0>         0.0310
     14 O1         -2.2185    1.9217    5.9209 O.2       1 <0>        -0.1457
     15 O2         -3.1875    1.7299    4.0744 O.3       1 <0>        -0.1508
     16 C12         0.0537   -3.2964    1.6692 C.3       1 <0>        -0.0948
     17 C13         0.0415   -3.3843   -1.4629 C.2       1 <0>         0.1616
     18 N3          0.0593   -4.5559   -0.9038 N.2       1 <0>        -0.2489
     19 N4          0.0713   -5.7106   -1.6972 N.am      1 <0>        -0.5806
     20 C14         0.0897   -6.9268   -1.1168 C.2       1 <0>         0.5796
     21 O3          0.0960   -7.0220    0.0956 O.2       1 <0>        -0.4969
     22 C15         0.1024   -8.1449   -1.9538 C.ar      1 <0>        -0.1266
     23 C16         0.1010   -8.0390   -3.3460 C.ar      1 <0>        -0.0732
     24 C17         0.1128   -9.1795   -4.1217 C.ar      1 <0>        -0.1170
     25 C18         0.1255  -10.4271   -3.5234 C.ar      1 <0>        -0.0618
     26 C19         0.1270  -10.5397   -2.1437 C.ar      1 <0>        -0.0990
     27 C20         0.1215   -9.4059   -1.3559 C.ar      1 <0>        -0.0282
     28 Br1         0.1438  -12.2497   -1.3365 Br        1 <0>        -0.0339
     29 H1          1.0042    1.8801    0.0026 H         1 <0>         0.0754
     30 H2         -0.5455    1.8639   -0.8728 H         1 <0>         0.0884
     31 H3         -0.5286    1.8543    0.9071 H         1 <0>         0.0618
     32 H4         -0.0010   -0.4461   -2.1238 H         1 <0>         0.1531
     33 H5          1.9866   -1.1116    2.8558 H         1 <0>         0.1510
     34 H6          1.9935   -0.3021    5.1798 H         1 <0>         0.1602
     35 H7          0.0471    0.9157    6.0669 H         1 <0>         0.1625
     36 H8         -1.9216    0.5325    2.3039 H         1 <0>         0.1604
     37 H9          1.0860   -3.5675    1.8902 H         1 <0>         0.0782
     38 H10        -0.4603   -3.0379    2.5950 H         1 <0>         0.0591
     39 H11        -0.4503   -4.1398    1.1971 H         1 <0>         0.1094
     40 H12         0.0359   -3.2998   -2.5396 H         1 <0>         0.1213
     41 H13         0.0663   -5.6347   -2.6642 H         1 <0>         0.3837
     42 H14         0.0904   -7.0660   -3.8146 H         1 <0>         0.1319
     43 H15         0.1118   -9.0985   -5.1986 H         1 <0>         0.1425
     44 H16         0.1340  -11.3168   -4.1355 H         1 <0>         0.1414
     45 H17         0.1272   -9.4946   -0.2795 H         1 <0>         0.1495
@<TRIPOS>BOND
     1    1    2 1
     2    1   29 1
     3    1   30 1
     4    1   31 1
     5    2    6 1
     6    2    3 2
     7    3    4 1
     8    3   32 1
     9    4    5 2
    10    4   17 1
    11    5    6 1
    12    5   16 1
    13    6    7 1
    14    7   12 ar
    15    7    8 ar
    16    8    9 ar
    17    8   33 1
    18    9   10 ar
    19    9   34 1
    20   10   11 ar
    21   10   35 1
    22   11   12 ar
    23   11   13 1
    24   12   36 1
    25   13   14 2
    26   13   15 1
    27   16   37 1
    28   16   38 1
    29   16   39 1
    30   17   18 2
    31   17   40 1
    32   18   19 1
    33   19   20 am
    34   19   41 1
    35   20   21 2
    36   20   22 1
    37   22   27 ar
    38   22   23 ar
    39   23   24 ar
    40   23   42 1
    41   24   25 ar
    42   24   43 1
    43   25   26 ar
    44   25   44 1
    45   26   27 ar
    46   26   28 1
    47   27   45 1
@<TRIPOS>MOLECULE
ZINC09699688
   58    61     0     0     0
SMALL
USER_CHARGES
1-[(2-methylcyclohexyl)carbamoyl]ethyl 2-(4-fluorophenyl)-1,3-dioxo-isoindoline-5-carboxylate
@<TRIPOS>ATOM
      1 C1          9.7464    1.5739    0.2315 C.3       1 <0>        -0.1490
      2 C2          9.5585    1.4290   -1.2800 C.3       1 <0>        -0.0998
      3 H1         10.3344    1.9924   -1.7982 H         1 <0>         0.0882
      4 C3          9.6563   -0.0481   -1.6667 C.3       1 <0>        -0.1163
      5 C4          9.4683   -0.1930   -3.1782 C.3       1 <0>        -0.1224
      6 C5          8.0935    0.3482   -3.5755 C.3       1 <0>        -0.1191
      7 C6          7.9958    1.8253   -3.1887 C.3       1 <0>        -0.1329
      8 C7          8.1837    1.9703   -1.6772 C.3       1 <0>         0.1533
      9 H2          8.1140    3.0226   -1.4017 H         1 <0>         0.0916
     10 N1          7.1408    1.2130   -0.9806 N.am      1 <0>        -0.7145
     11 C8          5.9369    1.7752   -0.7546 C.2       1 <0>         0.5190
     12 O1          5.7169    2.9080   -1.1278 O.2       1 <0>        -0.5140
     13 C9          4.8642    0.9962   -0.0380 C.3       1 <0>         0.0714
     14 H3          4.6942    0.0518   -0.5550 H         1 <0>         0.1141
     15 C10         5.3097    0.7179    1.3990 C.3       1 <0>        -0.1674
     16 O2          3.6343    1.7678   -0.0226 O.3       1 <0>        -0.3200
     17 C11         2.4785    1.0761   -0.0153 C.2       1 <0>         0.5117
     18 O3          2.4975   -0.1382   -0.0216 O.2       1 <0>        -0.4886
     19 C12         1.1863    1.7954    0.0004 C.ar      1 <0>        -0.0997
     20 C13         1.1662    3.1903    0.0080 C.ar      1 <0>        -0.0276
     21 C14        -0.0390    3.8715    0.0227 C.ar      1 <0>        -0.0503
     22 C15        -1.2316    3.1657    0.0299 C.ar      1 <0>        -0.1013
     23 C16        -1.2183    1.7556    0.0173 C.ar      1 <0>        -0.1493
     24 C17        -0.0126    1.0758    0.0080 C.ar      1 <0>         0.0218
     25 C18        -2.6361    1.3375    0.0221 C.2       1 <0>         0.5798
     26 O4         -3.0367    0.1910    0.0179 O.2       1 <0>        -0.4392
     27 N2         -3.4086    2.4385    0.0315 N.am      1 <0>        -0.5164
     28 C19        -2.6597    3.5558    0.0450 C.2       1 <0>         0.5747
     29 O5         -3.0838    4.6935    0.0556 O.2       1 <0>        -0.4371
     30 C20        -4.8109    2.4235    0.0379 C.ar      1 <0>         0.1124
     31 C21        -5.4931    1.2145    0.0288 C.ar      1 <0>        -0.1077
     32 C22        -6.8741    1.2017    0.0399 C.ar      1 <0>        -0.1314
     33 C23        -7.5784    2.3939    0.0494 C.ar      1 <0>         0.0963
     34 C24        -6.8997    3.6010    0.0532 C.ar      1 <0>        -0.1315
     35 C25        -5.5187    3.6177    0.0475 C.ar      1 <0>        -0.1079
     36 F1         -8.9293    2.3795    0.0555 F         1 <0>        -0.1343
     37 H4          8.9705    1.0105    0.7498 H         1 <0>         0.0544
     38 H5         10.7259    1.1883    0.5145 H         1 <0>         0.0592
     39 H6          9.6768    2.6262    0.5071 H         1 <0>         0.0577
     40 H7          8.8803   -0.6115   -1.1485 H         1 <0>         0.0589
     41 H8         10.6357   -0.4337   -1.3838 H         1 <0>         0.0688
     42 H9          9.5380   -1.2453   -3.4538 H         1 <0>         0.0639
     43 H10        10.2443    0.3704   -3.6965 H         1 <0>         0.0648
     44 H11         7.3176   -0.2152   -3.0572 H         1 <0>         0.0599
     45 H12         7.9597    0.2450   -4.6523 H         1 <0>         0.0635
     46 H13         7.0163    2.2109   -3.4717 H         1 <0>         0.0687
     47 H14         8.7717    2.3887   -3.7070 H         1 <0>         0.0746
     48 H15         7.3168    0.3070   -0.6821 H         1 <0>         0.4005
     49 H16         4.5337    0.1545    1.9173 H         1 <0>         0.0784
     50 H17         6.2329    0.1387    1.3875 H         1 <0>         0.0834
     51 H18         5.4796    1.6623    1.9160 H         1 <0>         0.0771
     52 H19         2.0951    3.7413    0.0028 H         1 <0>         0.1654
     53 H20        -0.0497    4.9515    0.0290 H         1 <0>         0.1588
     54 H21         0.0021   -0.0041    0.0020 H         1 <0>         0.1614
     55 H22        -4.9441    0.2845    0.0169 H         1 <0>         0.1654
     56 H23        -7.4051    0.2612    0.0373 H         1 <0>         0.1468
     57 H24        -7.4507    4.5298    0.0603 H         1 <0>         0.1468
     58 H25        -4.9897    4.5593    0.0500 H         1 <0>         0.1651
@<TRIPOS>BOND
     1    1    2 1
     2    1   37 1
     3    1   38 1
     4    1   39 1
     5    2    3 1
     6    2    8 1
     7    2    4 1
     8    4    5 1
     9    4   40 1
    10    4   41 1
    11    5    6 1
    12    5   42 1
    13    5   43 1
    14    6    7 1
    15    6   44 1
    16    6   45 1
    17    7    8 1
    18    7   46 1
    19    7   47 1
    20    8    9 1
    21    8   10 1
    22   10   11 am
    23   10   48 1
    24   11   12 2
    25   11   13 1
    26   13   14 1
    27   13   15 1
    28   13   16 1
    29   15   49 1
    30   15   50 1
    31   15   51 1
    32   16   17 1
    33   17   18 2
    34   17   19 1
    35   19   24 ar
    36   19   20 ar
    37   20   21 ar
    38   20   52 1
    39   21   22 ar
    40   21   53 1
    41   22   28 1
    42   22   23 ar
    43   23   24 ar
    44   23   25 1
    45   24   54 1
    46   25   26 2
    47   25   27 am
    48   27   28 am
    49   27   30 1
    50   28   29 2
    51   30   35 ar
    52   30   31 ar
    53   31   32 ar
    54   31   55 1
    55   32   33 ar
    56   32   56 1
    57   33   34 ar
    58   33   36 1
    59   34   35 ar
    60   34   57 1
    61   35   58 1
@<TRIPOS>MOLECULE
ZINC16246280
   47    51     0     0     0
SMALL
USER_CHARGES
2-[[5-(4-chlorophenyl)-4-(2-furylmethyl)-1,2,4-triazol-3-yl]sulfanylmethyl]-3H-quinazolin-4-one
@<TRIPOS>ATOM
      1 C1          3.4829    3.6535    0.2008 C.ar      1 <0>        -0.1335
      2 C2          2.2524    4.2888    0.0949 C.ar      1 <0>        -0.0713
      3 C3          1.0827    3.5631    0.0828 C.ar      1 <0>        -0.1052
      4 C4          1.1316    2.1707    0.1776 C.ar      1 <0>         0.1540
      5 C5          2.3848    1.5280    0.2844 C.ar      1 <0>        -0.1957
      6 C6          3.5570    2.2811    0.2953 C.ar      1 <0>        -0.0407
      7 C7          2.4019    0.0609    0.3826 C.2       1 <0>         0.5544
      8 O1          3.4480   -0.5544    0.4769 O.2       1 <0>        -0.5026
      9 N1          1.2093   -0.5787    0.3636 N.am      1 <0>        -0.6462
     10 H1          1.1818   -1.5463    0.4264 H         1 <0>         0.4226
     11 C8          0.0503    0.1220    0.2570 C.2       1 <0>         0.4124
     12 N2          0.0040    1.4166    0.1692 N.2       1 <0>        -0.5091
     13 C9         -1.2483   -0.6424    0.2404 C.3       1 <0>        -0.0905
     14 S1         -2.6296    0.5178    0.0925 S.3       1 <0>         0.1234
     15 C10        -3.9809   -0.6130    0.0973 C.2       1 <0>         0.1448
     16 N3         -3.9016   -1.9221    0.1820 N.2       1 <0>        -0.2905
     17 N4         -5.0785   -2.4378    0.1603 N.2       1 <0>        -0.2587
     18 C11        -5.9808   -1.4907    0.0514 C.2       1 <0>         0.2274
     19 N5         -5.3056   -0.2927    0.0077 N.pl3     1 <0>        -0.4559
     20 C12        -5.8864    1.0470   -0.1103 C.3       1 <0>         0.1771
     21 C13        -5.8604    1.4805   -1.5534 C.2       1 <0>        -0.0601
     22 C14        -6.8813    1.3801   -2.4234 C.2       1 <0>        -0.1793
     23 C15        -6.4238    1.9045   -3.6541 C.2       1 <0>        -0.2168
     24 C16        -5.1479    2.2864   -3.4647 C.2       1 <0>        -0.0124
     25 O2         -4.8121    2.0272   -2.1905 O.3       1 <0>        -0.1563
     26 C17        -7.4461   -1.6762   -0.0123 C.ar      1 <0>        -0.0103
     27 C18        -8.0171   -2.8863    0.3851 C.ar      1 <0>        -0.0604
     28 C19        -9.3854   -3.0514    0.3289 C.ar      1 <0>        -0.1033
     29 C20       -10.1912   -2.0237   -0.1314 C.ar      1 <0>        -0.0216
     30 C21        -9.6301   -0.8229   -0.5324 C.ar      1 <0>        -0.1042
     31 C22        -8.2636   -0.6439   -0.4753 C.ar      1 <0>        -0.1204
     32 Cl1       -11.9119   -2.2417   -0.2067 Cl        1 <0>        -0.0581
     33 H2          4.3895    4.2404    0.2090 H         1 <0>         0.1361
     34 H3          2.2128    5.3655    0.0214 H         1 <0>         0.1372
     35 H4          0.1316    4.0682    0.0007 H         1 <0>         0.1424
     36 H5          4.5167    1.7925    0.3775 H         1 <0>         0.1400
     37 H6         -1.2562   -1.3268   -0.6079 H         1 <0>         0.1343
     38 H7         -1.3478   -1.2097    1.1658 H         1 <0>         0.1347
     39 H8         -6.9167    1.0290    0.2451 H         1 <0>         0.1394
     40 H9         -5.3071    1.7484    0.4902 H         1 <0>         0.1214
     41 H10        -7.8630    0.9782   -2.2202 H         1 <0>         0.1566
     42 H11        -6.9888    1.9800   -4.5714 H         1 <0>         0.1546
     43 H12        -4.5032    2.7271   -4.2107 H         1 <0>         0.2091
     44 H13        -7.3892   -3.6901    0.7400 H         1 <0>         0.1485
     45 H14        -9.8287   -3.9856    0.6406 H         1 <0>         0.1448
     46 H15       -10.2636   -0.0250   -0.8908 H         1 <0>         0.1427
     47 H16        -7.8270    0.2929   -0.7886 H         1 <0>         0.1450
@<TRIPOS>BOND
     1    1    6 ar
     2    1    2 ar
     3    1   33 1
     4    2    3 ar
     5    2   34 1
     6    3    4 ar
     7    3   35 1
     8    4   12 1
     9    4    5 ar
    10    5    6 ar
    11    5    7 1
    12    6   36 1
    13    7    8 2
    14    7    9 am
    15    9   10 1
    16    9   11 1
    17   11   12 2
    18   11   13 1
    19   13   14 1
    20   13   37 1
    21   13   38 1
    22   14   15 1
    23   15   19 1
    24   15   16 2
    25   16   17 1
    26   17   18 2
    27   18   19 1
    28   18   26 1
    29   19   20 1
    30   20   21 1
    31   20   39 1
    32   20   40 1
    33   21   25 1
    34   21   22 2
    35   22   23 1
    36   22   41 1
    37   23   24 2
    38   23   42 1
    39   24   25 1
    40   24   43 1
    41   26   31 ar
    42   26   27 ar
    43   27   28 ar
    44   27   44 1
    45   28   29 ar
    46   28   45 1
    47   29   30 ar
    48   29   32 1
    49   30   31 ar
    50   30   46 1
    51   31   47 1
@<TRIPOS>MOLECULE
ZINC21222203
   58    61     0     0     0
SMALL
USER_CHARGES
(4R,7R)-7-(4-isobutoxyphenyl)-4-(3-nitrophenyl)-1,3,4,6,7,8-hexahydroquinoline-2,5-dione
@<TRIPOS>ATOM
      1 C1         -9.5448   -4.3656    2.0844 C.3       1 <0>        -0.1493
      2 C2         -9.0526   -3.9453    0.6980 C.3       1 <0>        -0.0950
      3 C3        -10.1057   -3.0590    0.0299 C.3       1 <0>        -0.1500
      4 C4         -7.7433   -3.1658    0.8363 C.3       1 <0>         0.0611
      5 O1         -7.2232   -2.8741   -0.4624 O.3       1 <0>        -0.3118
      6 C5         -6.0555   -2.1812   -0.5179 C.ar      1 <0>         0.1357
      7 C6         -5.4936   -1.8638   -1.7460 C.ar      1 <0>        -0.1499
      8 C7         -4.3063   -1.1597   -1.7998 C.ar      1 <0>        -0.0686
      9 C8         -3.6776   -0.7719   -0.6310 C.ar      1 <0>        -0.1252
     10 C9         -4.2326   -1.0920    0.5943 C.ar      1 <0>        -0.0717
     11 C10        -5.4229   -1.7905    0.6534 C.ar      1 <0>        -0.2066
     12 C11        -2.3821   -0.0044   -0.6926 C.3       1 <0>        -0.0291
     13 H1         -2.1220    0.1444   -1.7510 H         1 <0>         0.0938
     14 C12        -1.2825   -0.7947    0.0203 C.3       1 <0>        -0.0970
     15 C13         0.0021   -0.0041    0.0020 C.2       1 <0>         0.2337
     16 C14        -0.0162    1.3454    0.0094 C.2       1 <0>        -0.2815
     17 C15         1.2831    2.1159    0.0012 C.3       1 <0>         0.0077
     18 H2          1.1082    3.1180   -0.4174 H         1 <0>         0.1199
     19 C16         2.3147    1.3619   -0.8408 C.3       1 <0>        -0.1400
     20 C17         2.3280   -0.0862   -0.4240 C.2       1 <0>         0.5237
     21 O2          3.3644   -0.7147   -0.4545 O.2       1 <0>        -0.5005
     22 N1          1.1937   -0.6830   -0.0189 N.am      1 <0>        -0.6765
     23 C18         1.7921    2.2582    1.4124 C.ar      1 <0>        -0.0743
     24 C19         2.0715    1.1315    2.1634 C.ar      1 <0>        -0.0756
     25 C20         2.5430    1.2621    3.4561 C.ar      1 <0>        -0.1119
     26 C21         2.7252    2.5192    4.0018 C.ar      1 <0>        -0.0557
     27 C22         2.4409    3.6455    3.2528 C.ar      1 <0>        -0.0395
     28 C23         1.9743    3.5150    1.9579 C.ar      1 <0>        -0.0414
     29 N2          2.6355    4.9915    3.8372 N.pl3     1 <0>         0.0262
     30 O3          2.3846    5.9840    3.1773 O.2       1 <0>        -0.1533
     31 O4          3.0466    5.1065    4.9779 O.3       1 <0>        -0.1578
     32 C24        -1.2254    2.0605    0.0190 C.2       1 <0>         0.4064
     33 O5         -1.2017    3.2750    0.0369 O.2       1 <0>        -0.4627
     34 C25        -2.5499    1.3453    0.0129 C.3       1 <0>        -0.1616
     35 H3         -8.7876   -5.0028    2.5647 H         1 <0>         0.0585
     36 H4        -10.4861   -4.9260    1.9850 H         1 <0>         0.0671
     37 H5         -9.7145   -3.4701    2.7003 H         1 <0>         0.0590
     38 H6         -8.8829   -4.8408    0.0821 H         1 <0>         0.0823
     39 H7         -9.7518   -2.7569   -0.9668 H         1 <0>         0.0628
     40 H8        -10.2754   -2.1635    0.6458 H         1 <0>         0.0548
     41 H9        -11.0470   -3.6195   -0.0695 H         1 <0>         0.0589
     42 H10        -7.9315   -2.2257    1.3756 H         1 <0>         0.0641
     43 H11        -7.0142   -3.7700    1.3961 H         1 <0>         0.0632
     44 H12        -5.9840   -2.1671   -2.6593 H         1 <0>         0.1321
     45 H13        -3.8685   -0.9124   -2.7556 H         1 <0>         0.1307
     46 H14        -3.7371   -0.7921    1.5059 H         1 <0>         0.1243
     47 H15        -5.8581   -2.0368    1.6107 H         1 <0>         0.1282
     48 H16        -1.5819   -0.9814    1.0622 H         1 <0>         0.1057
     49 H17        -1.1283   -1.7545   -0.4945 H         1 <0>         0.1001
     50 H18         2.0460    1.4383   -1.9047 H         1 <0>         0.1193
     51 H19         3.3102    1.8019   -0.6816 H         1 <0>         0.1178
     52 H20         1.2329   -1.7352    0.2995 H         1 <0>         0.4431
     53 H21         1.9250    0.1494    1.7387 H         1 <0>         0.1380
     54 H22         2.7648    0.3820    4.0415 H         1 <0>         0.1481
     55 H23         3.0893    2.6212    5.0134 H         1 <0>         0.1551
     56 H24         1.7518    4.3950    1.3728 H         1 <0>         0.1574
     57 H25        -3.2961    1.9494   -0.5240 H         1 <0>         0.1038
     58 H26        -2.8875    1.1793    1.0466 H         1 <0>         0.1042
@<TRIPOS>BOND
     1    1    2 1
     2    1   35 1
     3    1   36 1
     4    1   37 1
     5    2    3 1
     6    2    4 1
     7    2   38 1
     8    3   39 1
     9    3   40 1
    10    3   41 1
    11    4    5 1
    12    4   42 1
    13    4   43 1
    14    5    6 1
    15    6   11 ar
    16    6    7 ar
    17    7    8 ar
    18    7   44 1
    19    8    9 ar
    20    8   45 1
    21    9   10 ar
    22    9   12 1
    23   10   11 ar
    24   10   46 1
    25   11   47 1
    26   12   13 1
    27   12   34 1
    28   12   14 1
    29   14   15 1
    30   14   48 1
    31   14   49 1
    32   15   22 1
    33   15   16 2
    34   16   17 1
    35   16   32 1
    36   17   18 1
    37   17   19 1
    38   17   23 1
    39   19   20 1
    40   19   50 1
    41   19   51 1
    42   20   21 2
    43   20   22 am
    44   22   52 1
    45   23   28 ar
    46   23   24 ar
    47   24   25 ar
    48   24   53 1
    49   25   26 ar
    50   25   54 1
    51   26   27 ar
    52   26   55 1
    53   27   28 ar
    54   27   29 1
    55   28   56 1
    56   29   30 2
    57   29   31 1
    58   32   33 2
    59   32   34 1
    60   34   57 1
    61   34   58 1
@<TRIPOS>MOLECULE
ZINC08591955
   51    54     0     0     0
SMALL
USER_CHARGES

@<TRIPOS>ATOM
      1 C1          0.1669   -3.1199   -2.5833 C.3       1 <0>        -0.1151
      2 C2          0.0920   -2.3204   -1.3081 C.ar      1 <0>        -0.0671
      3 C3          0.0161   -0.9405   -1.3614 C.ar      1 <0>        -0.1268
      4 C4         -0.0528   -0.2036   -0.1936 C.ar      1 <0>        -0.0974
      5 C5         -0.0459   -0.8441    1.0304 C.ar      1 <0>        -0.1411
      6 C6          0.0298   -2.2289    1.0870 C.ar      1 <0>         0.1343
      7 C7          0.0935   -2.9666   -0.0876 C.ar      1 <0>        -0.1395
      8 N1          0.0374   -2.8818    2.3277 N.am      1 <0>        -0.5208
      9 C8         -0.0091   -4.2201    2.4793 C.2       1 <0>         0.5200
     10 O1         -0.0635   -5.0550    1.6018 O.2       1 <0>        -0.4132
     11 C9          0.0215   -4.4645    3.9750 C.3       1 <0>         0.1117
     12 H1          0.9045   -5.0407    4.2514 H         1 <0>         0.1387
     13 N2          0.0880   -3.1082    4.5461 N.am      1 <0>        -0.6172
     14 C10         0.0976   -2.2534    3.5073 C.2       1 <0>         0.7067
     15 O2          0.1516   -1.0452    3.6272 O.2       1 <0>        -0.5184
     16 C11         0.1384   -2.7587    5.9679 C.3       1 <0>         0.2357
     17 C12         1.5735   -2.5749    6.3894 C.2       1 <0>        -0.0620
     18 C13         2.2613   -1.4194    6.3563 C.2       1 <0>        -0.1679
     19 C14         3.5606   -1.7022    6.8369 C.2       1 <0>        -0.2185
     20 C15         3.5890   -3.0136    7.1349 C.2       1 <0>        -0.0256
     21 O3          2.3810   -3.5359    6.8673 O.3       1 <0>        -0.1738
     22 C16        -1.2513   -5.1817    4.4294 C.3       1 <0>        -0.1411
     23 C17        -1.2752   -6.5748    3.8552 C.2       1 <0>         0.5092
     24 O4         -0.3998   -6.9329    3.0959 O.2       1 <0>        -0.4824
     25 N3         -2.2693   -7.4228    4.1854 N.am      1 <0>        -0.6731
     26 C18        -2.2371   -8.7479    3.7357 C.ar      1 <0>         0.1520
     27 C19        -3.4190   -9.4020    3.4135 C.ar      1 <0>        -0.1321
     28 C20        -3.3845  -10.7095    2.9700 C.ar      1 <0>        -0.0900
     29 C21        -2.1735  -11.3678    2.8467 C.ar      1 <0>        -0.0489
     30 C22        -0.9943  -10.7183    3.1672 C.ar      1 <0>        -0.0893
     31 C23        -1.0229   -9.4090    3.6056 C.ar      1 <0>        -0.1062
     32 Cl1        -2.1337  -13.0115    2.2896 Cl        1 <0>        -0.0679
     33 H2         -0.8410   -3.3659   -2.9176 H         1 <0>         0.0733
     34 H3          0.6713   -2.5331   -3.3510 H         1 <0>         0.0698
     35 H4          0.7245   -4.0391   -2.4036 H         1 <0>         0.0687
     36 H5          0.0109   -0.4375   -2.3171 H         1 <0>         0.1264
     37 H6         -0.1116    0.8739   -0.2383 H         1 <0>         0.1309
     38 H7         -0.0990   -0.2679    1.9423 H         1 <0>         0.1602
     39 H8          0.1487   -4.0444   -0.0467 H         1 <0>         0.1506
     40 H9         -0.4105   -1.8317    6.1338 H         1 <0>         0.1256
     41 H10        -0.3132   -3.5584    6.5549 H         1 <0>         0.1094
     42 H11         1.8921   -0.4599    6.0256 H         1 <0>         0.1527
     43 H12         4.3742   -1.0001    6.9438 H         1 <0>         0.1508
     44 H13         4.4380   -3.5540    7.5267 H         1 <0>         0.2054
     45 H14        -1.2683   -5.2370    5.5179 H         1 <0>         0.1230
     46 H15        -2.1238   -4.6297    4.0800 H         1 <0>         0.1118
     47 H16        -3.0071   -7.1149    4.7347 H         1 <0>         0.4135
     48 H17        -4.3643   -8.8887    3.5099 H         1 <0>         0.1357
     49 H18        -4.3034  -11.2187    2.7196 H         1 <0>         0.1384
     50 H19        -0.0506  -11.2345    3.0704 H         1 <0>         0.1378
     51 H20        -0.1020   -8.9011    3.8514 H         1 <0>         0.1429
@<TRIPOS>BOND
     1    1    2 1
     2    1   33 1
     3    1   34 1
     4    1   35 1
     5    2    7 ar
     6    2    3 ar
     7    3    4 ar
     8    3   36 1
     9    4    5 ar
    10    4   37 1
    11    5    6 ar
    12    5   38 1
    13    6    7 ar
    14    6    8 1
    15    7   39 1
    16    8   14 am
    17    8    9 am
    18    9   10 2
    19    9   11 1
    20   11   12 1
    21   11   13 1
    22   11   22 1
    23   13   14 am
    24   13   16 1
    25   14   15 2
    26   16   17 1
    27   16   40 1
    28   16   41 1
    29   17   21 1
    30   17   18 2
    31   18   19 1
    32   18   42 1
    33   19   20 2
    34   19   43 1
    35   20   21 1
    36   20   44 1
    37   22   23 1
    38   22   45 1
    39   22   46 1
    40   23   24 2
    41   23   25 am
    42   25   26 1
    43   25   47 1
    44   26   31 ar
    45   26   27 ar
    46   27   28 ar
    47   27   48 1
    48   28   29 ar
    49   28   49 1
    50   29   30 ar
    51   29   32 1
    52   30   31 ar
    53   30   50 1
    54   31   51 1
@<TRIPOS>MOLECULE
ZINC08426690
   46    48     0     0     0
SMALL
USER_CHARGES

@<TRIPOS>ATOM
      1 C1          0.7796    2.0436    0.4829 C.3       1 <0>        -0.1510
      2 C2          0.5139    0.5486    0.2954 C.3       1 <0>         0.0567
      3 O1          1.0898   -0.1776    1.3831 O.3       1 <0>        -0.3246
      4 C3          0.9447   -1.5120    1.3696 C.2       1 <0>         0.4602
      5 O2          0.3485   -2.0457    0.4643 O.2       1 <0>        -0.4944
      6 C4          1.5255   -2.3444    2.4836 C.3       1 <0>         0.2005
      7 C5          1.8537   -3.7299    1.9770 C.2       1 <0>        -0.1136
      8 N1          1.0177   -4.6038    1.4736 N.2       1 <0>        -0.0537
      9 N2         -0.2349   -4.3132    1.3711 N.pl3     1 <0>        -0.4568
     10 C6         -1.1249   -5.2434    0.8353 C.ar      1 <0>         0.1720
     11 C7         -0.6647   -6.4867    0.4162 C.ar      1 <0>        -0.1240
     12 C8         -1.5485   -7.4052   -0.1139 C.ar      1 <0>        -0.0593
     13 C9         -2.8912   -7.0897   -0.2284 C.ar      1 <0>        -0.1082
     14 C10        -3.3526   -5.8529    0.1874 C.ar      1 <0>        -0.0578
     15 C11        -2.4753   -4.9319    0.7241 C.ar      1 <0>        -0.1399
     16 Br1        -4.0981   -8.3512   -0.9551 Br        1 <0>        -0.0416
     17 C12         3.2464   -3.8908    2.1565 C.2       1 <0>         0.4094
     18 O3          3.8952   -4.8787    1.8678 O.2       1 <0>        -0.3718
     19 C13         3.7797   -2.6400    2.7597 C.2       1 <0>         0.4946
     20 O4          4.9444   -2.4465    3.0434 O.2       1 <0>        -0.4512
     21 N3          2.7857   -1.7557    2.9450 N.am      1 <0>        -0.5394
     22 C14         2.9304   -0.4775    3.4910 C.ar      1 <0>         0.1457
     23 C15         3.6460    0.4958    2.8049 C.ar      1 <0>        -0.0888
     24 C16         3.7866    1.7580    3.3472 C.ar      1 <0>        -0.1066
     25 C17         3.2165    2.0536    4.5720 C.ar      1 <0>        -0.1088
     26 C18         2.5039    1.0869    5.2579 C.ar      1 <0>        -0.1088
     27 C19         2.3542   -0.1755    4.7185 C.ar      1 <0>        -0.1152
     28 C20         0.5323   -2.4316    3.6441 C.3       1 <0>        -0.1670
     29 H1          1.8547    2.2211    0.5095 H         1 <0>         0.0691
     30 H2          0.3403    2.5976   -0.3467 H         1 <0>         0.0825
     31 H3          0.3330    2.3774    1.4196 H         1 <0>         0.0688
     32 H4         -0.5612    0.3711    0.2689 H         1 <0>         0.0712
     33 H5          0.9605    0.2149   -0.6412 H         1 <0>         0.0711
     34 H6         -0.5578   -3.4477    1.6668 H         1 <0>         0.3983
     35 H7          0.3830   -6.7334    0.5049 H         1 <0>         0.1500
     36 H8         -1.1917   -8.3710   -0.4400 H         1 <0>         0.1434
     37 H9         -4.4008   -5.6096    0.0960 H         1 <0>         0.1433
     38 H10        -2.8368   -3.9688    1.0531 H         1 <0>         0.1376
     39 H11         4.0920    0.2654    1.8487 H         1 <0>         0.1229
     40 H12         4.3427    2.5151    2.8144 H         1 <0>         0.1297
     41 H13         3.3283    3.0414    4.9940 H         1 <0>         0.1278
     42 H14         2.0606    1.3209    6.2145 H         1 <0>         0.1302
     43 H15         1.7938   -0.9286    5.2526 H         1 <0>         0.1284
     44 H16        -0.3502   -2.9867    3.3261 H         1 <0>         0.0732
     45 H17         1.0002   -2.9437    4.4850 H         1 <0>         0.1011
     46 H18         0.2395   -1.4267    3.9481 H         1 <0>         0.0948
@<TRIPOS>BOND
     1    1    2 1
     2    1   29 1
     3    1   30 1
     4    1   31 1
     5    2    3 1
     6    2   32 1
     7    2   33 1
     8    3    4 1
     9    4    5 2
    10    4    6 1
    11    6   21 1
    12    6    7 1
    13    6   28 1
    14    7    8 2
    15    7   17 1
    16    8    9 1
    17    9   10 1
    18    9   34 1
    19   10   15 ar
    20   10   11 ar
    21   11   12 ar
    22   11   35 1
    23   12   13 ar
    24   12   36 1
    25   13   14 ar
    26   13   16 1
    27   14   15 ar
    28   14   37 1
    29   15   38 1
    30   17   18 2
    31   17   19 1
    32   19   20 2
    33   19   21 am
    34   21   22 1
    35   22   27 ar
    36   22   23 ar
    37   23   24 ar
    38   23   39 1
    39   24   25 ar
    40   24   40 1
    41   25   26 ar
    42   25   41 1
    43   26   27 ar
    44   26   42 1
    45   27   43 1
    46   28   44 1
    47   28   45 1
    48   28   46 1
@<TRIPOS>MOLECULE
ZINC00669101
   44    46     0     0     0
SMALL
USER_CHARGES
methyl 2-(4-chloro-2-nitro-benzoyl)amino-4-(4-fluorophenyl)-5-methyl-thiophene-3-carboxylate
@<TRIPOS>ATOM
      1 C1          7.4438   -2.0595   -1.9213 C.3       1 <0>        -0.0689
      2 C2          5.9755   -1.8748   -1.6367 C.2       1 <0>        -0.1776
      3 C3          5.0011   -2.8187   -1.5928 C.2       1 <0>        -0.0400
      4 C4          3.6597   -2.3579   -1.2881 C.2       1 <0>        -0.1895
      5 C5          3.5001   -0.9937   -1.0802 C.2       1 <0>         0.0689
      6 S1          5.1012   -0.3659   -1.2776 S.3       1 <0>         0.2720
      7 N1          2.3388   -0.3021   -0.7807 N.am      1 <0>        -0.6088
      8 C6          2.3761    1.0338   -0.6057 C.2       1 <0>         0.5465
      9 O1          3.4295    1.6314   -0.7108 O.2       1 <0>        -0.4589
     10 C7          1.1369    1.7718   -0.2861 C.ar      1 <0>        -0.0839
     11 C8         -0.0464    1.0764   -0.0277 C.ar      1 <0>        -0.0629
     12 C9         -1.2009    1.7709    0.2649 C.ar      1 <0>        -0.0723
     13 C10        -1.1861    3.1554    0.3140 C.ar      1 <0>        -0.0027
     14 C11        -0.0158    3.8506    0.0587 C.ar      1 <0>        -0.0621
     15 C12         1.1441    3.1673   -0.2407 C.ar      1 <0>         0.0382
     16 N2          2.3942    3.9117   -0.5128 N.pl3     1 <0>         0.0146
     17 O2          2.7784    4.7631    0.2688 O.2       1 <0>        -0.1505
     18 O3          3.0386    3.6728   -1.5184 O.3       1 <0>        -0.0819
     19 Cl1        -2.6422    4.0226    0.6902 Cl        1 <0>        -0.0172
     20 C13         2.5302   -3.2836   -1.2074 C.2       1 <0>         0.5303
     21 O4          1.8765   -3.5338   -2.2025 O.2       1 <0>        -0.4884
     22 O5          2.2132   -3.8601   -0.0297 O.3       1 <0>        -0.3495
     23 C14         1.0802   -4.7681   -0.0239 C.3       1 <0>         0.0310
     24 C15         5.2942   -4.2509   -1.8384 C.ar      1 <0>        -0.0502
     25 C16         4.7475   -4.8966   -2.9465 C.ar      1 <0>        -0.0708
     26 C17         5.0270   -6.2285   -3.1736 C.ar      1 <0>        -0.1519
     27 C18         5.8408   -6.9271   -2.2965 C.ar      1 <0>         0.1044
     28 C19         6.3825   -6.2910   -1.1913 C.ar      1 <0>        -0.1527
     29 C20         6.1129   -4.9580   -0.9588 C.ar      1 <0>        -0.0675
     30 F1          6.1072   -8.2326   -2.5199 F         1 <0>        -0.1375
     31 H1          7.9465   -1.0933   -1.8788 H         1 <0>         0.0777
     32 H2          7.8770   -2.7275   -1.1769 H         1 <0>         0.0827
     33 H3          7.5699   -2.4913   -2.9142 H         1 <0>         0.0834
     34 H4          1.4982   -0.7789   -0.6967 H         1 <0>         0.4187
     35 H5         -0.0581   -0.0030   -0.0613 H         1 <0>         0.1576
     36 H6         -2.1177    1.2345    0.4601 H         1 <0>         0.1659
     37 H7         -0.0116    4.9300    0.0938 H         1 <0>         0.1679
     38 H8          0.1842   -4.2331   -0.3387 H         1 <0>         0.0638
     39 H9          1.2715   -5.5922   -0.7112 H         1 <0>         0.0663
     40 H10         0.9343   -5.1607    0.9824 H         1 <0>         0.1054
     41 H11         4.1094   -4.3540   -3.6283 H         1 <0>         0.1356
     42 H12         4.6072   -6.7284   -4.0340 H         1 <0>         0.1384
     43 H13         7.0166   -6.8395   -0.5105 H         1 <0>         0.1399
     44 H14         6.5351   -4.4632   -0.0967 H         1 <0>         0.1365
@<TRIPOS>BOND
     1    1    2 1
     2    1   31 1
     3    1   32 1
     4    1   33 1
     5    2    6 1
     6    2    3 2
     7    3    4 1
     8    3   24 1
     9    4    5 2
    10    4   20 1
    11    5    6 1
    12    5    7 1
    13    7    8 am
    14    7   34 1
    15    8    9 2
    16    8   10 1
    17   10   15 ar
    18   10   11 ar
    19   11   12 ar
    20   11   35 1
    21   12   13 ar
    22   12   36 1
    23   13   14 ar
    24   13   19 1
    25   14   15 ar
    26   14   37 1
    27   15   16 1
    28   16   17 2
    29   16   18 1
    30   20   21 2
    31   20   22 1
    32   22   23 1
    33   23   38 1
    34   23   39 1
    35   23   40 1
    36   24   29 ar
    37   24   25 ar
    38   25   26 ar
    39   25   41 1
    40   26   27 ar
    41   26   42 1
    42   27   28 ar
    43   27   30 1
    44   28   29 ar
    45   28   43 1
    46   29   44 1
@<TRIPOS>MOLECULE
ZINC12696760
   48    51     0     0     0
SMALL
USER_CHARGES
(3E)-6-chloro-3-[[3-methoxy-4-[(4-nitrophenyl)methoxy]phenyl]methylene]indolin-2-one
@<TRIPOS>ATOM
      1 C1         -4.5414   10.0575   -0.2771 C.3       1 <0>         0.0232
      2 O1         -5.1425    8.7611   -0.2786 O.3       1 <0>        -0.3036
      3 C2         -4.3055    7.6923   -0.1981 C.ar      1 <0>         0.1016
      4 C3         -2.9418    7.8889   -0.1154 C.ar      1 <0>        -0.1430
      5 C4         -2.0821    6.7846   -0.0385 C.ar      1 <0>        -0.0852
      6 C5         -2.6135    5.4877   -0.0352 C.ar      1 <0>        -0.0801
      7 C6         -3.9755    5.3026   -0.1127 C.ar      1 <0>        -0.1818
      8 C7         -4.8259    6.3980   -0.1947 C.ar      1 <0>         0.1202
      9 O2         -6.1683    6.2083   -0.2714 O.3       1 <0>        -0.2917
     10 C8         -6.6341    4.8574   -0.2626 C.3       1 <0>         0.0912
     11 C9         -8.1383    4.8440   -0.3540 C.ar      1 <0>        -0.0448
     12 C10        -8.9010    4.8651    0.7987 C.ar      1 <0>        -0.0921
     13 C11       -10.2808    4.8573    0.7148 C.ar      1 <0>        -0.0563
     14 C12       -10.8978    4.8188   -0.5216 C.ar      1 <0>        -0.0343
     15 C13       -10.1351    4.7929   -1.6742 C.ar      1 <0>        -0.0563
     16 C14        -8.7553    4.8051   -1.5904 C.ar      1 <0>        -0.0919
     17 N1        -12.3752    4.8058   -0.6113 N.pl3     1 <0>         0.0243
     18 O3        -12.9189    4.7723   -1.7007 O.2       1 <0>        -0.1540
     19 O4        -13.0472    4.8286    0.4043 O.3       1 <0>        -0.1542
     20 C15        -0.6325    6.9856    0.0444 C.2       1 <0>         0.0387
     21 C16         0.2073    6.2153   -0.7068 C.2       1 <0>        -0.1609
     22 C17        -0.1577    5.2905   -1.8042 C.ar      1 <0>        -0.1024
     23 C18        -1.3700    4.9307   -2.3833 C.ar      1 <0>        -0.0568
     24 C19        -1.3899    4.0211   -3.4211 C.ar      1 <0>        -0.1319
     25 C20        -0.2065    3.4618   -3.8771 C.ar      1 <0>         0.0027
     26 C21         1.0022    3.8132   -3.3085 C.ar      1 <0>        -0.1322
     27 C22         1.0416    4.7317   -2.2653 C.ar      1 <0>         0.1616
     28 N2          2.1009    5.2496   -1.5293 N.am      1 <0>        -0.6520
     29 C23         1.6734    6.1235   -0.6022 C.2       1 <0>         0.5628
     30 O5          2.3745    6.7318    0.1857 O.2       1 <0>        -0.4951
     31 Cl1        -0.2431    2.3144   -5.1794 Cl        1 <0>        -0.0556
     32 H1         -3.9779   10.1956    0.6457 H         1 <0>         0.0579
     33 H2         -3.8690   10.1472   -1.1303 H         1 <0>         0.0575
     34 H3         -5.3187   10.8185   -0.3454 H         1 <0>         0.1041
     35 H4         -2.5382    8.8906   -0.1142 H         1 <0>         0.1443
     36 H5         -1.9549    4.6341    0.0277 H         1 <0>         0.1369
     37 H6         -4.3840    4.3028   -0.1102 H         1 <0>         0.1434
     38 H7         -6.2137    4.3225   -1.1142 H         1 <0>         0.0841
     39 H8         -6.3220    4.3714    0.6617 H         1 <0>         0.0837
     40 H9         -8.4189    4.8911    1.7648 H         1 <0>         0.1508
     41 H10       -10.8767    4.8779    1.6153 H         1 <0>         0.1581
     42 H11       -10.6172    4.7628   -2.6401 H         1 <0>         0.1582
     43 H12        -8.1594    4.7845   -2.4909 H         1 <0>         0.1511
     44 H13        -0.2290    7.7431    0.6999 H         1 <0>         0.1496
     45 H14        -2.2919    5.3638   -2.0243 H         1 <0>         0.1475
     46 H15        -2.3288    3.7423   -3.8762 H         1 <0>         0.1410
     47 H16         1.9183    3.3737   -3.6746 H         1 <0>         0.1403
     48 H17         3.0307    5.0103   -1.6671 H         1 <0>         0.4216
@<TRIPOS>BOND
     1    1    2 1
     2    1   32 1
     3    1   33 1
     4    1   34 1
     5    2    3 1
     6    3    8 ar
     7    3    4 ar
     8    4    5 ar
     9    4   35 1
    10    5    6 ar
    11    5   20 1
    12    6    7 ar
    13    6   36 1
    14    7    8 ar
    15    7   37 1
    16    8    9 1
    17    9   10 1
    18   10   11 1
    19   10   38 1
    20   10   39 1
    21   11   16 ar
    22   11   12 ar
    23   12   13 ar
    24   12   40 1
    25   13   14 ar
    26   13   41 1
    27   14   15 ar
    28   14   17 1
    29   15   16 ar
    30   15   42 1
    31   16   43 1
    32   17   18 2
    33   17   19 1
    34   20   21 2
    35   20   44 1
    36   21   29 1
    37   21   22 1
    38   22   27 ar
    39   22   23 ar
    40   23   24 ar
    41   23   45 1
    42   24   25 ar
    43   24   46 1
    44   25   26 ar
    45   25   31 1
    46   26   27 ar
    47   26   47 1
    48   27   28 1
    49   28   29 am
    50   28   48 1
    51   29   30 2
@<TRIPOS>MOLECULE
ZINC15776871
   54    58     0     0     0
SMALL
USER_CHARGES

@<TRIPOS>ATOM
      1 C1         -0.0157    1.3058    0.0092 C.2       1 <0>        -0.1385
      2 C2          0.0021   -0.0041    0.0020 C.2       1 <0>        -0.1964
      3 C3          1.3172   -0.7397   -0.0145 C.3       1 <0>         0.1141
      4 N1          1.3674   -1.6756    1.1115 N.am      1 <0>        -0.5486
      5 C4          1.8617   -1.2663    2.3030 C.2       1 <0>         0.5676
      6 O1          2.2679   -0.1298    2.4611 O.2       1 <0>        -0.4998
      7 C5          1.8892   -2.2449    3.3990 C.ar      1 <0>        -0.2194
      8 C6          2.3784   -1.9210    4.6634 C.ar      1 <0>        -0.0321
      9 C7          2.3798   -2.8787    5.6538 C.ar      1 <0>        -0.1507
     10 C8          1.8998   -4.1575    5.4011 C.ar      1 <0>        -0.0643
     11 C9          1.4163   -4.4963    4.1690 C.ar      1 <0>        -0.1187
     12 C10         1.4008   -3.5465    3.1438 C.ar      1 <0>         0.1894
     13 N2          0.9291   -3.8426    1.9097 N.2       1 <0>        -0.5369
     14 C11         0.9102   -2.9517    0.9521 C.2       1 <0>         0.6422
     15 N3          0.4104   -3.3207   -0.2772 N.pl3     1 <0>        -0.5457
     16 N4         -0.0675   -4.6224   -0.4771 N.2       1 <0>        -0.0865
     17 C12        -0.5437   -4.9739   -1.6484 C.2       1 <0>         0.0621
     18 C13        -1.0933   -6.2927   -2.0398 C.ar      1 <0>        -0.0942
     19 C14        -1.2709   -7.4910   -1.3573 C.ar      1 <0>        -0.0326
     20 C15        -1.8243   -8.5747   -2.0092 C.ar      1 <0>        -0.1403
     21 C16        -2.2001   -8.4676   -3.3378 C.ar      1 <0>        -0.0649
     22 C17        -2.0273   -7.2827   -4.0239 C.ar      1 <0>        -0.1359
     23 C18        -1.4724   -6.1799   -3.3836 C.ar      1 <0>         0.1628
     24 N5         -1.1937   -4.8940   -3.8329 N.am      1 <0>        -0.5306
     25 C19        -0.6542   -4.1400   -2.8600 C.2       1 <0>         0.5440
     26 O2         -0.3140   -2.9757   -2.9617 O.2       1 <0>        -0.5030
     27 C20        -1.4598   -4.4194   -5.1931 C.3       1 <0>         0.1528
     28 C21        -2.8476   -3.8357   -5.2588 C.ar      1 <0>        -0.1213
     29 C22        -3.9236   -4.6447   -5.5729 C.ar      1 <0>        -0.0982
     30 C23        -5.1966   -4.1092   -5.6333 C.ar      1 <0>        -0.1213
     31 C24        -5.3937   -2.7648   -5.3791 C.ar      1 <0>        -0.1086
     32 C25        -4.3178   -1.9560   -5.0641 C.ar      1 <0>        -0.1217
     33 C26        -3.0454   -2.4923   -4.9995 C.ar      1 <0>        -0.0960
     34 H1          0.9122    1.8585    0.0033 H         1 <0>         0.1058
     35 H2         -0.9582    1.8330    0.0166 H         1 <0>         0.1076
     36 H3         -0.9258   -0.5567    0.0079 H         1 <0>         0.1125
     37 H4          1.4134   -1.2911   -0.9498 H         1 <0>         0.0947
     38 H5          2.1349   -0.0241    0.0711 H         1 <0>         0.1146
     39 H6          2.7534   -0.9284    4.8648 H         1 <0>         0.1366
     40 H7          2.7577   -2.6331    6.6353 H         1 <0>         0.1326
     41 H8          1.9094   -4.8949    6.1901 H         1 <0>         0.1339
     42 H9          1.0473   -5.4949    3.9878 H         1 <0>         0.1398
     43 H10         0.3894   -2.6793   -1.0046 H         1 <0>         0.4190
     44 H11        -0.9769   -7.5736   -0.3214 H         1 <0>         0.1402
     45 H12        -1.9640   -9.5073   -1.4827 H         1 <0>         0.1370
     46 H13        -2.6320   -9.3195   -3.8419 H         1 <0>         0.1370
     47 H14        -2.3240   -7.2116   -5.0599 H         1 <0>         0.1314
     48 H15        -0.7308   -3.6543   -5.4601 H         1 <0>         0.1035
     49 H16        -1.3831   -5.2536   -5.8905 H         1 <0>         0.1022
     50 H17        -3.7696   -5.6950   -5.7715 H         1 <0>         0.1231
     51 H18        -6.0371   -4.7412   -5.8794 H         1 <0>         0.1258
     52 H19        -6.3881   -2.3463   -5.4269 H         1 <0>         0.1244
     53 H20        -4.4718   -0.9055   -4.8658 H         1 <0>         0.1242
     54 H21        -2.2054   -1.8612   -4.7498 H         1 <0>         0.1252
@<TRIPOS>BOND
     1    1    2 2
     2    1   34 1
     3    1   35 1
     4    2    3 1
     5    2   36 1
     6    3    4 1
     7    3   37 1
     8    3   38 1
     9    4   14 1
    10    4    5 am
    11    5    6 2
    12    5    7 1
    13    7   12 ar
    14    7    8 ar
    15    8    9 ar
    16    8   39 1
    17    9   10 ar
    18    9   40 1
    19   10   11 ar
    20   10   41 1
    21   11   12 ar
    22   11   42 1
    23   12   13 1
    24   13   14 2
    25   14   15 1
    26   15   16 1
    27   15   43 1
    28   16   17 2
    29   17   25 1
    30   17   18 1
    31   18   23 ar
    32   18   19 ar
    33   19   20 ar
    34   19   44 1
    35   20   21 ar
    36   20   45 1
    37   21   22 ar
    38   21   46 1
    39   22   23 ar
    40   22   47 1
    41   23   24 1
    42   24   25 am
    43   24   27 1
    44   25   26 2
    45   27   28 1
    46   27   48 1
    47   27   49 1
    48   28   33 ar
    49   28   29 ar
    50   29   30 ar
    51   29   50 1
    52   30   31 ar
    53   30   51 1
    54   31   32 ar
    55   31   52 1
    56   32   33 ar
    57   32   53 1
    58   33   54 1
@<TRIPOS>MOLECULE
ZINC35518521
   63    67     0     0     0
SMALL
USER_CHARGES

@<TRIPOS>ATOM
      1 C1         -0.0173    1.4248    0.0099 C.3       1 <0>         0.0259
      2 O1          0.0021   -0.0041    0.0020 O.3       1 <0>        -0.3173
      3 C2         -1.2003   -0.6375    0.0101 C.ar      1 <0>         0.1295
      4 C3         -2.3746    0.1011    0.0195 C.ar      1 <0>        -0.2058
      5 C4         -3.5956   -0.5451    0.0272 C.ar      1 <0>        -0.0681
      6 C5         -3.6478   -1.9268    0.0260 C.ar      1 <0>        -0.1260
      7 C6         -2.4788   -2.6651    0.0172 C.ar      1 <0>        -0.0729
      8 C7         -1.2554   -2.0237    0.0032 C.ar      1 <0>        -0.1505
      9 C8         -4.9811   -2.6292    0.0350 C.3       1 <0>        -0.0877
     10 C9         -5.4428   -2.8652   -1.4045 C.3       1 <0>         0.0941
     11 N1         -6.7390   -3.5480   -1.3958 N.am      1 <0>        -0.5298
     12 C10        -6.7756   -4.9054   -1.3914 C.2       1 <0>         0.3912
     13 N2         -7.9110   -5.5513   -1.3832 N.2       1 <0>        -0.4925
     14 C11        -9.0692   -4.8971   -1.3789 C.2       1 <0>         0.1074
     15 C12        -9.1322   -3.4949   -1.3829 C.2       1 <0>        -0.2479
     16 C13        -7.8692   -2.8170   -1.3867 C.2       1 <0>         0.5518
     17 O2         -7.8195   -1.5991   -1.3857 O.2       1 <0>        -0.5151
     18 C14       -10.4745   -2.9127   -1.3781 C.2       1 <0>        -0.0290
     19 C15       -11.5125   -3.7755   -1.3724 C.2       1 <0>        -0.2085
     20 S1        -10.7753   -5.3866   -1.3680 S.3       1 <0>         0.1718
     21 C16       -12.9723   -3.4318   -1.3742 C.3       1 <0>         0.2023
     22 N3        -13.0780   -1.9767   -1.1495 N.am      1 <0>        -0.6282
     23 C17       -12.1253   -1.1106   -1.8603 C.3       1 <0>         0.1282
     24 C18       -10.7055   -1.4044   -1.3744 C.3       1 <0>        -0.0767
     25 C19       -14.0112   -1.4619   -0.3245 C.2       1 <0>         0.7147
     26 O3        -14.0773   -0.2595   -0.1565 O.2       1 <0>        -0.5805
     27 N4        -14.8710   -2.2799    0.3143 N.am      1 <0>        -0.7425
     28 C20       -15.8854   -1.7202    1.2110 C.3       1 <0>         0.1628
     29 C21       -15.2793   -1.5131    2.6005 C.3       1 <0>        -0.1298
     30 C22       -16.3386   -0.9286    3.5371 C.3       1 <0>        -0.1175
     31 C23       -17.5212   -1.8944    3.6353 C.3       1 <0>        -0.1226
     32 C24       -18.1273   -2.1015    2.2458 C.3       1 <0>        -0.1158
     33 C25       -17.0680   -2.6860    1.3093 C.3       1 <0>        -0.1264
     34 H1          1.0053    1.8021    0.0021 H         1 <0>         0.1021
     35 H2         -0.5445    1.7859   -0.8732 H         1 <0>         0.0568
     36 H3         -0.5275    1.7763    0.9067 H         1 <0>         0.0566
     37 H4         -2.3343    1.1803    0.0211 H         1 <0>         0.1296
     38 H5         -4.5101    0.0294    0.0345 H         1 <0>         0.1270
     39 H6         -2.5223   -3.7443    0.0166 H         1 <0>         0.1310
     40 H7         -0.3427   -2.6008   -0.0082 H         1 <0>         0.1327
     41 H8         -4.8840   -3.5865    0.5470 H         1 <0>         0.0795
     42 H9         -5.7136   -2.0117    0.5548 H         1 <0>         0.0806
     43 H10        -5.5399   -1.9079   -1.9165 H         1 <0>         0.1065
     44 H11        -4.7104   -3.4827   -1.9243 H         1 <0>         0.1020
     45 H12        -5.8494   -5.4610   -1.3951 H         1 <0>         0.2176
     46 H13       -13.4137   -3.6919   -2.3363 H         1 <0>         0.0939
     47 H14       -13.4811   -3.9690   -0.5739 H         1 <0>         0.0940
     48 H15       -12.1895   -1.3025   -2.9314 H         1 <0>         0.0741
     49 H16       -12.3676   -0.0662   -1.6637 H         1 <0>         0.1040
     50 H17       -10.5803   -1.0194   -0.3624 H         1 <0>         0.0846
     51 H18        -9.9867   -0.9244   -2.0386 H         1 <0>         0.1001
     52 H19       -14.8183   -3.2391    0.1802 H         1 <0>         0.3935
     53 H20       -16.2294   -0.7634    0.8184 H         1 <0>         0.0896
     54 H21       -14.9353   -2.4700    2.9932 H         1 <0>         0.0617
     55 H22       -14.4368   -0.8251    2.5305 H         1 <0>         0.0675
     56 H23       -15.9068   -0.7811    4.5270 H         1 <0>         0.0646
     57 H24       -16.6826    0.0282    3.1444 H         1 <0>         0.0650
     58 H25       -17.1772   -2.8513    4.0280 H         1 <0>         0.0624
     59 H26       -18.2759   -1.4780    4.3025 H         1 <0>         0.0643
     60 H27       -18.9698   -2.7896    2.3158 H         1 <0>         0.0678
     61 H28       -18.4713   -1.1447    1.8532 H         1 <0>         0.0660
     62 H29       -17.4998   -2.8336    0.3194 H         1 <0>         0.0691
     63 H30       -16.7240   -3.6429    1.7020 H         1 <0>         0.0673
@<TRIPOS>BOND
     1    1    2 1
     2    1   34 1
     3    1   35 1
     4    1   36 1
     5    2    3 1
     6    3    8 ar
     7    3    4 ar
     8    4    5 ar
     9    4   37 1
    10    5    6 ar
    11    5   38 1
    12    6    7 ar
    13    6    9 1
    14    7    8 ar
    15    7   39 1
    16    8   40 1
    17    9   10 1
    18    9   41 1
    19    9   42 1
    20   10   11 1
    21   10   43 1
    22   10   44 1
    23   11   16 am
    24   11   12 1
    25   12   13 2
    26   12   45 1
    27   13   14 1
    28   14   20 1
    29   14   15 2
    30   15   16 1
    31   15   18 1
    32   16   17 2
    33   18   24 1
    34   18   19 2
    35   19   20 1
    36   19   21 1
    37   21   22 1
    38   21   46 1
    39   21   47 1
    40   22   23 1
    41   22   25 am
    42   23   24 1
    43   23   48 1
    44   23   49 1
    45   24   50 1
    46   24   51 1
    47   25   26 2
    48   25   27 am
    49   27   28 1
    50   27   52 1
    51   28   33 1
    52   28   29 1
    53   28   53 1
    54   29   30 1
    55   29   54 1
    56   29   55 1
    57   30   31 1
    58   30   56 1
    59   30   57 1
    60   31   32 1
    61   31   58 1
    62   31   59 1
    63   32   33 1
    64   32   60 1
    65   32   61 1
    66   33   62 1
    67   33   63 1
@<TRIPOS>MOLECULE
ZINC49464320
   62    65     0     0     0
SMALL
USER_CHARGES

@<TRIPOS>ATOM
      1 C1          4.6219  -13.6597   -9.2666 C.3       1 <0>        -0.1510
      2 C2          5.2019  -12.3353   -9.7670 C.3       1 <0>        -0.1229
      3 C3          4.6952  -11.1914   -8.8863 C.3       1 <0>         0.0525
      4 O1          5.2369   -9.9544   -9.3537 O.3       1 <0>        -0.3045
      5 C4          4.8830   -8.8308   -8.6761 C.ar      1 <0>         0.1922
      6 C5          4.0364   -8.9176   -7.5803 C.ar      1 <0>        -0.2221
      7 C6          3.6787   -7.7742   -6.8931 C.ar      1 <0>         0.0215
      8 C7          4.1636   -6.5435   -7.2964 C.ar      1 <0>        -0.7125
      9 C8          5.0069   -6.4542   -8.3882 C.ar      1 <0>         0.0160
     10 C9          5.3723   -7.5957   -9.0755 C.ar      1 <0>        -0.1357
     11 C10         6.2966   -7.4984  -10.2617 C.3       1 <0>        -0.1070
     12 S1          3.7053   -5.0867   -6.4175 S.o2      1 <0>         2.6925
     13 O2          3.7324   -4.0205   -7.3565 O.2       1 <0>        -0.9505
     14 O3          2.5425   -5.4129   -5.6688 O.2       1 <0>        -0.9480
     15 N1          4.9054   -4.7800   -5.3184 N.pl3     1 <0>        -1.0635
     16 C11         5.1601   -5.6919   -4.2877 C.ar      1 <0>         0.1154
     17 C12         4.2904   -5.7734   -3.2048 C.ar      1 <0>        -0.0671
     18 C13         4.5334   -6.6723   -2.1851 C.ar      1 <0>        -0.1369
     19 C14         5.6451   -7.4954   -2.2374 C.ar      1 <0>         0.1370
     20 C15         6.5310   -7.4195   -3.3208 C.ar      1 <0>        -0.1363
     21 C16         6.2724   -6.5121   -4.3532 C.ar      1 <0>        -0.0522
     22 C17         7.7218   -8.2790   -3.3768 C.2       1 <0>         0.5703
     23 O4          7.8803   -9.0180   -4.3293 O.2       1 <0>        -0.5283
     24 N2          8.6415   -8.2634   -2.3912 N.am      1 <0>        -0.5907
     25 C18         9.7540   -9.2132   -2.4382 C.3       1 <0>         0.1107
     26 C19        11.0697   -8.4887   -2.1559 C.3       1 <0>        -0.1336
     27 C20        10.9464   -7.7122   -0.8436 C.3       1 <0>        -0.1205
     28 C21         9.8566   -6.6523   -0.9744 C.3       1 <0>        -0.1263
     29 C22         8.5156   -7.2961   -1.3041 C.3       1 <0>         0.1383
     30 H1          7.8130   -6.5179   -1.6023 H         1 <0>         0.0856
     31 C23         7.9643   -7.9937   -0.0571 C.3       1 <0>        -0.1668
     32 C24         6.4414   -7.8725   -0.0329 C.3       1 <0>         0.0622
     33 O5          5.8876   -8.3922   -1.2429 O.3       1 <0>        -0.3259
     34 H2          4.9360  -13.8278   -8.2365 H         1 <0>         0.0589
     35 H3          3.5336  -13.6203   -9.3129 H         1 <0>         0.0584
     36 H4          4.9830  -14.4746   -9.8941 H         1 <0>         0.0668
     37 H5          6.2903  -12.3747   -9.7208 H         1 <0>         0.0752
     38 H6          4.8879  -12.1672  -10.7972 H         1 <0>         0.0748
     39 H7          3.6068  -11.1520   -8.9326 H         1 <0>         0.0668
     40 H8          5.0092  -11.3595   -7.8562 H         1 <0>         0.0682
     41 H9          3.6572   -9.8785   -7.2652 H         1 <0>         0.1382
     42 H10         3.0194   -7.8412   -6.0402 H         1 <0>         0.1426
     43 H11         5.3839   -5.4919   -8.7014 H         1 <0>         0.1448
     44 H12         5.7096   -7.3550  -11.1689 H         1 <0>         0.0722
     45 H13         6.9714   -6.6529  -10.1282 H         1 <0>         0.0692
     46 H14         6.8773   -8.4169  -10.3462 H         1 <0>         0.0733
     47 H15         5.4318   -3.9684   -5.3890 H         1 <0>         0.4273
     48 H16         3.4230   -5.1314   -3.1613 H         1 <0>         0.1483
     49 H17         3.8560   -6.7330   -1.3462 H         1 <0>         0.1458
     50 H18         6.9422   -6.4487   -5.1980 H         1 <0>         0.1407
     51 H19         9.5997   -9.9888   -1.6881 H         1 <0>         0.0662
     52 H20         9.7976   -9.6709   -3.4265 H         1 <0>         0.0951
     53 H21        11.8760   -9.2175   -2.0732 H         1 <0>         0.0792
     54 H22        11.2859   -7.7964   -2.9696 H         1 <0>         0.0677
     55 H23        10.6889   -8.3998   -0.0380 H         1 <0>         0.0668
     56 H24        11.8970   -7.2290   -0.6173 H         1 <0>         0.0695
     57 H25         9.7716   -6.1069   -0.0345 H         1 <0>         0.0803
     58 H26        10.1259   -5.9567   -1.7692 H         1 <0>         0.0687
     59 H27         8.2443   -9.0470   -0.0768 H         1 <0>         0.0828
     60 H28         8.3800   -7.5248    0.8348 H         1 <0>         0.0932
     61 H29         6.0477   -8.4335    0.8147 H         1 <0>         0.1016
     62 H30         6.1641   -6.8234    0.0706 H         1 <0>         0.0657
@<TRIPOS>BOND
     1    1    2 1
     2    1   34 1
     3    1   35 1
     4    1   36 1
     5    2    3 1
     6    2   37 1
     7    2   38 1
     8    3    4 1
     9    3   39 1
    10    3   40 1
    11    4    5 1
    12    5   10 ar
    13    5    6 ar
    14    6    7 ar
    15    6   41 1
    16    7    8 ar
    17    7   42 1
    18    8    9 ar
    19    8   12 1
    20    9   10 ar
    21    9   43 1
    22   10   11 1
    23   11   44 1
    24   11   45 1
    25   11   46 1
    26   12   13 2
    27   12   14 2
    28   12   15 1
    29   15   16 1
    30   15   47 1
    31   16   21 ar
    32   16   17 ar
    33   17   18 ar
    34   17   48 1
    35   18   19 ar
    36   18   49 1
    37   19   33 1
    38   19   20 ar
    39   20   21 ar
    40   20   22 1
    41   21   50 1
    42   22   23 2
    43   22   24 am
    44   24   29 1
    45   24   25 1
    46   25   26 1
    47   25   51 1
    48   25   52 1
    49   26   27 1
    50   26   53 1
    51   26   54 1
    52   27   28 1
    53   27   55 1
    54   27   56 1
    55   28   29 1
    56   28   57 1
    57   28   58 1
    58   29   30 1
    59   29   31 1
    60   31   32 1
    61   31   59 1
    62   31   60 1
    63   32   33 1
    64   32   61 1
    65   32   62 1
@<TRIPOS>MOLECULE
ZINC04668668
   55    57     0     0     0
SMALL
USER_CHARGES
4-(3,5-dimethyl-1-piperidyl)-N-(4-ethylphenyl)-3-nitro-benzamide
@<TRIPOS>ATOM
      1 C1         -0.0141    2.1698   -1.0439 C.3       1 <0>        -0.1484
      2 C2          0.0019    1.0721    0.0217 C.3       1 <0>        -0.0854
      3 C3         -0.7073    1.5618    1.2580 C.ar      1 <0>        -0.0913
      4 C4          0.0049    2.2085    2.2514 C.ar      1 <0>        -0.0973
      5 C5         -0.6430    2.6635    3.3830 C.ar      1 <0>        -0.1145
      6 C6         -2.0094    2.4609    3.5278 C.ar      1 <0>         0.1352
      7 C7         -2.7208    1.8060    2.5308 C.ar      1 <0>        -0.1387
      8 C8         -2.0678    1.3585    1.3991 C.ar      1 <0>        -0.0983
      9 N1         -2.6675    2.9149    4.6753 N.am      1 <0>        -0.6661
     10 C9         -2.2555    4.0434    5.2863 C.2       1 <0>         0.5623
     11 O1         -1.3752    4.7182    4.7878 O.2       1 <0>        -0.5014
     12 C10        -2.8722    4.4597    6.5598 C.ar      1 <0>        -0.1399
     13 C11        -3.8884    3.6879    7.1314 C.ar      1 <0>        -0.0280
     14 C12        -4.4581    4.0762    8.3221 C.ar      1 <0>        -0.1585
     15 C13        -4.0313    5.2422    8.9522 C.ar      1 <0>         0.1904
     16 C14        -3.0235    6.0156    8.3830 C.ar      1 <0>        -0.0328
     17 C15        -2.4461    5.6298    7.1948 C.ar      1 <0>         0.0096
     18 N2         -2.5729    7.2545    9.0562 N.pl3     1 <0>         0.0262
     19 O2         -1.6914    7.9319    8.5585 O.2       1 <0>        -0.1895
     20 O3         -3.0835    7.5965   10.1078 O.3       1 <0>        -0.0881
     21 N3         -4.6127    5.6347   10.1528 N.pl3     1 <0>        -0.4971
     22 C16        -4.3398    4.6572   11.2141 C.3       1 <0>         0.0692
     23 C17        -4.8674    5.1900   12.5482 C.3       1 <0>        -0.0896
     24 H1         -4.3619    6.1240   12.7932 H         1 <0>         0.0922
     25 C18        -6.3738    5.4389   12.4329 C.3       1 <0>        -0.1127
     26 C19        -6.6345    6.4231   11.2892 C.3       1 <0>        -0.0864
     27 H2         -7.7082    6.5715   11.1745 H         1 <0>         0.0771
     28 C20        -6.0557    5.8545    9.9916 C.3       1 <0>         0.0662
     29 C21        -5.9638    7.7617   11.6044 C.3       1 <0>        -0.1450
     30 C22        -4.6024    4.1616   13.6496 C.3       1 <0>        -0.1479
     31 H3         -1.0455    2.4205   -1.2920 H         1 <0>         0.0555
     32 H4          0.4930    3.0554   -0.6609 H         1 <0>         0.0564
     33 H5          0.4989    1.8157   -1.9381 H         1 <0>         0.0590
     34 H6         -0.5052    0.1865   -0.3613 H         1 <0>         0.0723
     35 H7          1.0333    0.8215    0.2698 H         1 <0>         0.0727
     36 H8          1.0682    2.3615    2.1403 H         1 <0>         0.1270
     37 H9         -0.0870    3.1725    4.1565 H         1 <0>         0.1345
     38 H10        -3.7834    1.6472    2.6402 H         1 <0>         0.1259
     39 H11        -2.6204    0.8494    0.6232 H         1 <0>         0.1273
     40 H12        -3.4204    2.4177    5.0313 H         1 <0>         0.4096
     41 H13        -4.2230    2.7857    6.6409 H         1 <0>         0.1451
     42 H14        -5.2401    3.4783    8.7663 H         1 <0>         0.1521
     43 H15        -1.6642    6.2303    6.7537 H         1 <0>         0.1704
     44 H16        -4.8359    3.7159   10.9772 H         1 <0>         0.0428
     45 H17        -3.2649    4.4924   11.2884 H         1 <0>         0.0763
     46 H18        -6.7461    5.8593   13.3672 H         1 <0>         0.0704
     47 H19        -6.8848    4.4982   12.2276 H         1 <0>         0.0590
     48 H20        -6.2270    6.5594    9.1781 H         1 <0>         0.0772
     49 H21        -6.5437    4.9077    9.7605 H         1 <0>         0.0425
     50 H22        -6.1468    8.4607   10.7883 H         1 <0>         0.0492
     51 H23        -6.3764    8.1661   12.5286 H         1 <0>         0.0483
     52 H24        -4.8905    7.6118   11.7206 H         1 <0>         0.0836
     53 H25        -5.1070    3.2273   13.4034 H         1 <0>         0.0529
     54 H26        -3.5299    3.9848   13.7312 H         1 <0>         0.0565
     55 H27        -4.9815    4.5401   14.5989 H         1 <0>         0.0619
@<TRIPOS>BOND
     1    1    2 1
     2    1   31 1
     3    1   32 1
     4    1   33 1
     5    2    3 1
     6    2   34 1
     7    2   35 1
     8    3    8 ar
     9    3    4 ar
    10    4    5 ar
    11    4   36 1
    12    5    6 ar
    13    5   37 1
    14    6    7 ar
    15    6    9 1
    16    7    8 ar
    17    7   38 1
    18    8   39 1
    19    9   10 am
    20    9   40 1
    21   10   11 2
    22   10   12 1
    23   12   17 ar
    24   12   13 ar
    25   13   14 ar
    26   13   41 1
    27   14   15 ar
    28   14   42 1
    29   15   16 ar
    30   15   21 1
    31   16   17 ar
    32   16   18 1
    33   17   43 1
    34   18   19 2
    35   18   20 1
    36   21   28 1
    37   21   22 1
    38   22   23 1
    39   22   44 1
    40   22   45 1
    41   23   24 1
    42   23   25 1
    43   23   30 1
    44   25   26 1
    45   25   46 1
    46   25   47 1
    47   26   27 1
    48   26   28 1
    49   26   29 1
    50   28   48 1
    51   28   49 1
    52   29   50 1
    53   29   51 1
    54   29   52 1
    55   30   53 1
    56   30   54 1
    57   30   55 1
@<TRIPOS>MOLECULE
ZINC05234896
   51    53     0     0     0
SMALL
USER_CHARGES
tert-butyl 2-methyl-5-(p-tolylsulfonylamino)benzofuran-3-carboxylate
@<TRIPOS>ATOM
      1 C1          4.1693    4.3944   -5.5937 C.3       1 <0>        -0.1268
      2 C2          3.8451    3.3681   -4.5389 C.ar      1 <0>        -0.0245
      3 C3          4.8517    2.8517   -3.7445 C.ar      1 <0>        -0.1428
      4 C4          4.5543    1.9102   -2.7769 C.ar      1 <0>        -0.0141
      5 C5          3.2502    1.4859   -2.6032 C.ar      1 <0>        -0.6822
      6 C6          2.2444    1.9987   -3.4008 C.ar      1 <0>        -0.0100
      7 C7          2.5411    2.9434   -4.3654 C.ar      1 <0>        -0.1413
      8 S1          2.8712    0.2859   -1.3698 S.o2      1 <0>         2.6867
      9 O1          4.0832   -0.3979   -1.0824 O.2       1 <0>        -0.9506
     10 O2          1.7003   -0.3901   -1.8072 O.2       1 <0>        -0.9450
     11 N1          2.4558    1.1109    0.0046 N.pl3     1 <0>        -1.0602
     12 C8          1.3200    1.9274    0.0140 C.ar      1 <0>         0.1166
     13 C9          1.4584    3.3128   -0.0224 C.ar      1 <0>        -0.0852
     14 C10         0.3483    4.1285   -0.0136 C.ar      1 <0>        -0.0888
     15 C11        -0.9245    3.5722    0.0322 C.ar      1 <0>         0.0629
     16 C12        -1.0648    2.1774    0.0640 C.ar      1 <0>        -0.0856
     17 C13         0.0586    1.3577    0.0599 C.ar      1 <0>        -0.0554
     18 C14        -2.5203    1.9289    0.1009 C.2       1 <0>        -0.2127
     19 C15        -3.1048    3.1586    0.0836 C.2       1 <0>         0.1095
     20 O3         -2.1635    4.1082    0.0510 O.3       1 <0>        -0.1746
     21 C16        -4.5902    3.4120    0.1091 C.3       1 <0>        -0.0921
     22 C17        -3.1968    0.6257    0.1472 C.2       1 <0>         0.5491
     23 O4         -3.4544    0.1123    1.2186 O.2       1 <0>        -0.4839
     24 O5         -3.5319   -0.0008   -0.9986 O.3       1 <0>        -0.3392
     25 C18        -4.1981   -1.2853   -0.8770 C.3       1 <0>         0.1156
     26 C19        -5.5080   -1.1095   -0.1062 C.3       1 <0>        -0.1846
     27 C20        -4.4973   -1.8386   -2.2716 C.3       1 <0>        -0.1421
     28 C21        -3.2908   -2.2611   -0.1250 C.3       1 <0>        -0.1869
     29 H1          4.4016    3.8904   -6.5318 H         1 <0>         0.0807
     30 H2          3.3116    5.0515   -5.7370 H         1 <0>         0.0737
     31 H3          5.0292    4.9836   -5.2752 H         1 <0>         0.0738
     32 H4          5.8705    3.1835   -3.8800 H         1 <0>         0.1340
     33 H5          5.3407    1.5065   -2.1565 H         1 <0>         0.1415
     34 H6          1.2262    1.6639   -3.2680 H         1 <0>         0.1381
     35 H7          1.7547    3.3471   -4.9858 H         1 <0>         0.1333
     36 H8          3.0000    1.0279    0.8032 H         1 <0>         0.4282
     37 H9          2.4447    3.7514   -0.0581 H         1 <0>         0.1463
     38 H10         0.4672    5.2016   -0.0428 H         1 <0>         0.1450
     39 H11        -0.0520    0.2838    0.0878 H         1 <0>         0.1415
     40 H12        -4.9265    3.4978    1.1423 H         1 <0>         0.0998
     41 H13        -4.8100    4.3377   -0.4227 H         1 <0>         0.0950
     42 H14        -5.1084    2.5836   -0.3740 H         1 <0>         0.0963
     43 H15        -6.1543   -0.4143   -0.6419 H         1 <0>         0.0626
     44 H16        -6.0080   -2.0737   -0.0149 H         1 <0>         0.0749
     45 H17        -5.2948   -0.7152    0.8874 H         1 <0>         0.0827
     46 H18        -3.5641   -1.9639   -2.8208 H         1 <0>         0.0694
     47 H19        -4.9974   -2.8029   -2.1804 H         1 <0>         0.0811
     48 H20        -5.1437   -1.1434   -2.8074 H         1 <0>         0.0674
     49 H21        -3.0776   -1.8669    0.8686 H         1 <0>         0.0822
     50 H22        -3.7909   -3.2253   -0.0337 H         1 <0>         0.0747
     51 H23        -2.3576   -2.3863   -0.6741 H         1 <0>         0.0657
@<TRIPOS>BOND
     1    1    2 1
     2    1   29 1
     3    1   30 1
     4    1   31 1
     5    2    7 ar
     6    2    3 ar
     7    3    4 ar
     8    3   32 1
     9    4    5 ar
    10    4   33 1
    11    5    6 ar
    12    5    8 1
    13    6    7 ar
    14    6   34 1
    15    7   35 1
    16    8    9 2
    17    8   10 2
    18    8   11 1
    19   11   12 1
    20   11   36 1
    21   12   17 ar
    22   12   13 ar
    23   13   14 ar
    24   13   37 1
    25   14   15 ar
    26   14   38 1
    27   15   20 1
    28   15   16 ar
    29   16   17 ar
    30   16   18 1
    31   17   39 1
    32   18   19 2
    33   18   22 1
    34   19   20 1
    35   19   21 1
    36   21   40 1
    37   21   41 1
    38   21   42 1
    39   22   23 2
    40   22   24 1
    41   24   25 1
    42   25   26 1
    43   25   27 1
    44   25   28 1
    45   26   43 1
    46   26   44 1
    47   26   45 1
    48   27   46 1
    49   27   47 1
    50   27   48 1
    51   28   49 1
    52   28   50 1
    53   28   51 1
@<TRIPOS>MOLECULE
ZINC14785674
   41    43     0     0     0
SMALL
USER_CHARGES
N-(4-fluoro-2-methyl-phenyl)-4-(4-methylthiazol-2-yl)sulfanyl-3-nitro-benzamide
@<TRIPOS>ATOM
      1 C1         -2.3901    3.6796    0.9548 C.3       1 <0>        -0.1197
      2 C2         -1.1473    3.0315    0.4012 C.ar      1 <0>        -0.0823
      3 C3          0.0464    3.7264    0.3863 C.ar      1 <0>        -0.1340
      4 C4          1.1885    3.1316   -0.1226 C.ar      1 <0>         0.0918
      5 C5          1.1369    1.8388   -0.6168 C.ar      1 <0>        -0.1361
      6 C6         -0.0544    1.1406   -0.6038 C.ar      1 <0>        -0.0956
      7 C7         -1.2026    1.7376   -0.0995 C.ar      1 <0>         0.1299
      8 N1         -2.4124    1.0340   -0.0911 N.am      1 <0>        -0.6568
      9 C8         -2.4081   -0.3137   -0.0885 C.2       1 <0>         0.5595
     10 O1         -1.3570   -0.9183    0.0045 O.2       1 <0>        -0.4927
     11 C9         -3.6780   -1.0553   -0.1984 C.ar      1 <0>        -0.1000
     12 C10        -4.8880   -0.3615   -0.2996 C.ar      1 <0>        -0.0471
     13 C11        -6.0635   -1.0485   -0.4062 C.ar      1 <0>        -0.0542
     14 C12        -6.0635   -2.4413   -0.4040 C.ar      1 <0>        -0.1020
     15 C13        -4.8636   -3.1404   -0.2983 C.ar      1 <0>        -0.0048
     16 C14        -3.6752   -2.4537   -0.1959 C.ar      1 <0>         0.0014
     17 N2         -4.8664   -4.6208   -0.2957 N.pl3     1 <0>         0.0165
     18 O2         -3.8168   -5.2317   -0.2028 O.2       1 <0>        -0.1403
     19 O3         -5.9184   -5.2279   -0.3863 O.3       1 <0>        -0.1234
     20 S1         -7.5849   -3.3206   -0.5345 S.3       1 <0>         0.2159
     21 C15        -7.5972   -3.9068   -2.1961 C.2       1 <0>         0.0439
     22 N3         -8.4691   -4.7007   -2.7890 N.2       1 <0>        -0.4725
     23 C16        -8.3283   -5.0450   -4.0544 C.2       1 <0>         0.0734
     24 C17        -7.2630   -4.5645   -4.7402 C.2       1 <0>        -0.2034
     25 S2         -6.4695   -3.5821   -3.4761 S.3       1 <0>         0.0325
     26 C18        -9.3297   -5.9517   -4.7225 C.3       1 <0>        -0.0835
     27 F1          2.3549    3.8131   -0.1367 F         1 <0>        -0.1366
     28 H1         -2.9146    4.2020    0.1547 H         1 <0>         0.0789
     29 H2         -3.0415    2.9145    1.3772 H         1 <0>         0.0660
     30 H3         -2.1132    4.3910    1.7328 H         1 <0>         0.0798
     31 H4          0.0888    4.7344    0.7715 H         1 <0>         0.1422
     32 H5          2.0290    1.3766   -1.0130 H         1 <0>         0.1420
     33 H6         -0.0942    0.1327   -0.9895 H         1 <0>         0.1566
     34 H7         -3.2540    1.5164   -0.0871 H         1 <0>         0.4127
     35 H8         -4.8925    0.7185   -0.2972 H         1 <0>         0.1559
     36 H9         -6.9962   -0.5102   -0.4880 H         1 <0>         0.1714
     37 H10        -2.7432   -2.9933   -0.1142 H         1 <0>         0.1775
     38 H11        -6.9751   -4.7271   -5.7683 H         1 <0>         0.2020
     39 H12       -10.1233   -5.3514   -5.1674 H         1 <0>         0.0780
     40 H13        -8.8327   -6.5311   -5.5006 H         1 <0>         0.0779
     41 H14        -9.7573   -6.6285   -3.9827 H         1 <0>         0.0793
@<TRIPOS>BOND
     1    1    2 1
     2    1   28 1
     3    1   29 1
     4    1   30 1
     5    2    7 ar
     6    2    3 ar
     7    3    4 ar
     8    3   31 1
     9    4    5 ar
    10    4   27 1
    11    5    6 ar
    12    5   32 1
    13    6    7 ar
    14    6   33 1
    15    7    8 1
    16    8    9 am
    17    8   34 1
    18    9   10 2
    19    9   11 1
    20   11   16 ar
    21   11   12 ar
    22   12   13 ar
    23   12   35 1
    24   13   14 ar
    25   13   36 1
    26   14   15 ar
    27   14   20 1
    28   15   16 ar
    29   15   17 1
    30   16   37 1
    31   17   18 2
    32   17   19 1
    33   20   21 1
    34   21   25 1
    35   21   22 2
    36   22   23 1
    37   23   24 2
    38   23   26 1
    39   24   25 1
    40   24   38 1
    41   26   39 1
    42   26   40 1
    43   26   41 1
@<TRIPOS>MOLECULE
ZINC27138736
   59    61     0     0     0
SMALL
USER_CHARGES
3-(3-cyano-5,7-dimethyl-pyrazolo[1,5-a]pyrimidin-6-yl)-N-(2,4-diisopropylphenyl)propanamide
@<TRIPOS>ATOM
      1 C1         -2.1530   -1.2811    8.7119 C.3       1 <0>        -0.1236
      2 C2         -1.1589   -2.4022    8.5506 C.2       1 <0>         0.2366
      3 C3         -1.0607   -3.0784    7.3285 C.2       1 <0>        -0.1900
      4 C4         -0.1651   -4.0897    7.1974 C.2       1 <0>         0.2129
      5 N1          0.6275   -4.4166    8.2580 N.pl3     1 <0>        -0.3040
      6 C5          0.5013   -3.7322    9.4348 C.2       1 <0>         0.3256
      7 N2         -0.3853   -2.7429    9.5575 N.2       1 <0>        -0.4741
      8 C6          1.4325   -4.2909   10.3301 C.2       1 <0>        -0.1937
      9 C7          2.1006   -5.3169    9.6394 C.2       1 <0>         0.1524
     10 N3          1.6232   -5.3853    8.4237 N.2       1 <0>        -0.3046
     11 C8          1.6571   -3.8902   11.6864 C.1       1 <0>         0.2986
     12 N4          1.8352   -3.5723   12.7624 N.1       1 <0>        -0.4272
     13 C9         -0.0439   -4.8377    5.8948 C.3       1 <0>        -0.1299
     14 C10        -1.9454   -2.6911    6.1717 C.3       1 <0>        -0.0546
     15 C11        -1.2505   -1.6139    5.3365 C.3       1 <0>        -0.1412
     16 C12        -2.1352   -1.2267    4.1796 C.2       1 <0>         0.5152
     17 O1         -3.2153   -1.7598    4.0371 O.2       1 <0>        -0.5192
     18 N5         -1.7262   -0.2879    3.3033 N.am      1 <0>        -0.6852
     19 C13        -2.5926    0.1556    2.2980 C.ar      1 <0>         0.1464
     20 C14        -3.9567    0.2443    2.5441 C.ar      1 <0>        -0.1151
     21 C15        -4.8092    0.6819    1.5498 C.ar      1 <0>        -0.0997
     22 C16        -4.3059    1.0320    0.3100 C.ar      1 <0>        -0.0865
     23 C17        -2.9480    0.9498    0.0635 C.ar      1 <0>        -0.0956
     24 C18        -2.0906    0.5074    1.0521 C.ar      1 <0>        -0.0995
     25 C19        -0.6113    0.4125    0.7807 C.3       1 <0>        -0.0506
     26 C20        -0.3566   -0.6484   -0.2919 C.3       1 <0>        -0.1440
     27 C21        -0.0947    1.7669    0.2913 C.3       1 <0>        -0.1479
     28 C22        -5.2391    1.5092   -0.7728 C.3       1 <0>        -0.0558
     29 C23        -6.2618    0.4145   -1.0837 C.3       1 <0>        -0.1463
     30 C24        -5.9680    2.7685   -0.2996 C.3       1 <0>        -0.1459
     31 H1         -2.7052   -1.1424    7.7707 H         1 <0>         0.0930
     32 H2         -1.6205   -0.3524    8.9649 H         1 <0>         0.0964
     33 H3         -2.8589   -1.5302    9.5179 H         1 <0>         0.0971
     34 H4          2.8796   -5.9450   10.0456 H         1 <0>         0.2124
     35 H5          0.7303   -5.6136    5.9882 H         1 <0>         0.0961
     36 H6          0.2342   -4.1367    5.0940 H         1 <0>         0.0992
     37 H7         -1.0077   -5.3088    5.6515 H         1 <0>         0.1039
     38 H8         -2.1369   -3.5744    5.5448 H         1 <0>         0.0953
     39 H9         -2.8994   -2.2996    6.5547 H         1 <0>         0.1017
     40 H10        -1.0591   -0.7305    5.9634 H         1 <0>         0.1037
     41 H11        -0.2965   -2.0054    4.9536 H         1 <0>         0.0990
     42 H12        -0.7113    0.1297    3.3784 H         1 <0>         0.4315
     43 H13        -4.3502   -0.0282    3.5122 H         1 <0>         0.1311
     44 H14        -5.8699    0.7512    1.7405 H         1 <0>         0.1228
     45 H15        -2.5575    1.2281   -0.9042 H         1 <0>         0.1230
     46 H16        -0.0997    0.1319    1.7132 H         1 <0>         0.0701
     47 H17         0.7232   -0.7177   -0.4900 H         1 <0>         0.0594
     48 H18        -0.8819   -0.3681   -1.2169 H         1 <0>         0.0591
     49 H19        -0.7280   -1.6221    0.0600 H         1 <0>         0.0552
     50 H20         0.9851    1.6976    0.0932 H         1 <0>         0.0598
     51 H21        -0.2778    2.5296    1.0625 H         1 <0>         0.0567
     52 H22        -0.6200    2.0472   -0.6336 H         1 <0>         0.0599
     53 H23        -4.6478    1.7351   -1.6724 H         1 <0>         0.0764
     54 H24        -6.9429    0.7629   -1.8741 H         1 <0>         0.0586
     55 H25        -6.8399    0.1845   -0.1766 H         1 <0>         0.0575
     56 H26        -5.7378   -0.4908   -1.4240 H         1 <0>         0.0560
     57 H27        -6.6491    3.1167   -1.0900 H         1 <0>         0.0586
     58 H28        -5.2328    3.5556   -0.0761 H         1 <0>         0.0559
     59 H29        -6.5461    2.5385    0.6075 H         1 <0>         0.0573
@<TRIPOS>BOND
     1    1    2 1
     2    1   31 1
     3    1   32 1
     4    1   33 1
     5    2    7 2
     6    2    3 1
     7    3    4 2
     8    3   14 1
     9    4    5 1
    10    4   13 1
    11    5   10 1
    12    5    6 1
    13    6    7 1
    14    6    8 2
    15    8    9 1
    16    8   11 1
    17    9   10 2
    18    9   34 1
    19   11   12 3
    20   13   35 1
    21   13   36 1
    22   13   37 1
    23   14   15 1
    24   14   38 1
    25   14   39 1
    26   15   16 1
    27   15   40 1
    28   15   41 1
    29   16   17 2
    30   16   18 am
    31   18   19 1
    32   18   42 1
    33   19   24 ar
    34   19   20 ar
    35   20   21 ar
    36   20   43 1
    37   21   22 ar
    38   21   44 1
    39   22   23 ar
    40   22   28 1
    41   23   24 ar
    42   23   45 1
    43   24   25 1
    44   25   26 1
    45   25   27 1
    46   25   46 1
    47   26   47 1
    48   26   48 1
    49   26   49 1
    50   27   50 1
    51   27   51 1
    52   27   52 1
    53   28   29 1
    54   28   30 1
    55   28   53 1
    56   29   54 1
    57   29   55 1
    58   29   56 1
    59   30   57 1
    60   30   58 1
    61   30   59 1
@<TRIPOS>MOLECULE
ZINC54973975
   60    62     0     0     0
SMALL
USER_CHARGES

@<TRIPOS>ATOM
      1 C1          0.0076    1.5107   -0.0251 C.3       1 <0>        -0.1464
      2 C2          0.0111   -0.0193   -0.0329 C.3       1 <0>        -0.1000
      3 C3          0.7666   -0.5338    1.1940 C.3       1 <0>        -0.1351
      4 C4         -1.4297   -0.5327    0.0031 C.3       1 <0>         0.2147
      5 H1         -1.9204   -0.1751    0.9083 H         1 <0>         0.0951
      6 C5         -2.1739   -0.0260   -1.2054 C.ar      1 <0>        -0.1268
      7 C6         -2.0207   -0.6582   -2.4255 C.ar      1 <0>        -0.0753
      8 C7         -2.7014   -0.1953   -3.5349 C.ar      1 <0>        -0.1470
      9 C8         -3.5397    0.9045   -3.4239 C.ar      1 <0>         0.1299
     10 C9         -3.6921    1.5368   -2.1985 C.ar      1 <0>        -0.2033
     11 C10        -3.0131    1.0669   -1.0910 C.ar      1 <0>        -0.0629
     12 O1         -4.2101    1.3621   -4.5139 O.3       1 <0>        -0.3171
     13 C11        -5.0556    2.4987   -4.3257 C.3       1 <0>         0.0261
     14 N1         -1.4264   -1.9977   -0.0043 N.am      1 <0>        -0.7401
     15 C12        -1.2921   -2.6772    1.1519 C.2       1 <0>         0.7102
     16 O2         -1.0962   -2.0765    2.1907 O.2       1 <0>        -0.5781
     17 N2         -1.3749   -4.0224    1.1565 N.am      1 <0>        -0.6282
     18 C13        -1.3480   -4.7690    2.4221 C.3       1 <0>         0.1156
     19 C14        -2.5969   -5.6562    2.4943 C.3       1 <0>         0.1089
     20 N3         -2.7163   -6.4027    1.2339 N.pl3     1 <0>        -0.6305
     21 C15        -2.7432   -5.6560   -0.0316 C.3       1 <0>         0.1088
     22 C16        -1.4998   -4.7684   -0.1035 C.3       1 <0>         0.0963
     23 C17        -2.8023   -7.7994    1.2387 C.ar      1 <0>         0.1859
     24 C18        -2.7932   -8.5001    0.0399 C.ar      1 <0>        -0.1594
     25 C19        -2.8776   -9.8786    0.0457 C.ar      1 <0>        -0.1007
     26 C20        -2.9715  -10.5631    1.2483 C.ar      1 <0>         0.0701
     27 C21        -2.9811   -9.8639    2.4462 C.ar      1 <0>        -0.1564
     28 C22        -2.8909   -8.4858    2.4426 C.ar      1 <0>        -0.1589
     29 O3         -3.0546  -11.9206    1.2530 O.3       1 <0>        -0.3217
     30 C23        -3.1488  -12.5603    2.5273 C.3       1 <0>         0.0290
     31 H2          1.0340    1.8765   -0.0508 H         1 <0>         0.0572
     32 H3         -0.5307    1.8772   -0.8992 H         1 <0>         0.0574
     33 H4         -0.4831    1.8683    0.8801 H         1 <0>         0.0563
     34 H5          0.5018   -0.3769   -0.9381 H         1 <0>         0.0687
     35 H6          0.2759   -0.1761    2.0993 H         1 <0>         0.0639
     36 H7          0.7691   -1.6237    1.1885 H         1 <0>         0.0540
     37 H8          1.7931   -0.1679    1.1684 H         1 <0>         0.0437
     38 H9         -1.3680   -1.5143   -2.5113 H         1 <0>         0.1246
     39 H10        -2.5809   -0.6890   -4.4878 H         1 <0>         0.1326
     40 H11        -4.3441    2.3932   -2.1096 H         1 <0>         0.1306
     41 H12        -3.1348    1.5560   -0.1358 H         1 <0>         0.1277
     42 H13        -4.4594    3.3406   -3.9738 H         1 <0>         0.0569
     43 H14        -5.5297    2.7595   -5.2719 H         1 <0>         0.1019
     44 H15        -5.8224    2.2628   -3.5878 H         1 <0>         0.0566
     45 H16        -1.5208   -2.4787   -0.8414 H         1 <0>         0.3929
     46 H17        -0.4542   -5.3918    2.4605 H         1 <0>         0.0698
     47 H18        -1.3465   -4.0706    3.2589 H         1 <0>         0.1046
     48 H19        -2.5019   -6.3548    3.3256 H         1 <0>         0.0944
     49 H20        -3.4803   -5.0336    2.6357 H         1 <0>         0.0661
     50 H21        -2.7446   -6.3544   -0.8685 H         1 <0>         0.0957
     51 H22        -3.6369   -5.0333   -0.0700 H         1 <0>         0.0664
     52 H23        -1.5986   -4.0696   -0.9342 H         1 <0>         0.0834
     53 H24        -0.6171   -5.3911   -0.2490 H         1 <0>         0.0761
     54 H25        -2.7205   -7.9673   -0.8966 H         1 <0>         0.1294
     55 H26        -2.8709  -10.4237   -0.8867 H         1 <0>         0.1302
     56 H27        -3.0545  -10.3977    3.3822 H         1 <0>         0.1272
     57 H28        -2.8936   -7.9418    3.3756 H         1 <0>         0.1258
     58 H29        -3.2087  -13.6398    2.3884 H         1 <0>         0.0980
     59 H30        -2.2673  -12.3188    3.1212 H         1 <0>         0.0528
     60 H31        -4.0423  -12.2104    3.0444 H         1 <0>         0.0527
@<TRIPOS>BOND
     1    1    2 1
     2    1   31 1
     3    1   32 1
     4    1   33 1
     5    2    3 1
     6    2    4 1
     7    2   34 1
     8    3   35 1
     9    3   36 1
    10    3   37 1
    11    4    5 1
    12    4    6 1
    13    4   14 1
    14    6   11 ar
    15    6    7 ar
    16    7    8 ar
    17    7   38 1
    18    8    9 ar
    19    8   39 1
    20    9   10 ar
    21    9   12 1
    22   10   11 ar
    23   10   40 1
    24   11   41 1
    25   12   13 1
    26   13   42 1
    27   13   43 1
    28   13   44 1
    29   14   15 am
    30   14   45 1
    31   15   16 2
    32   15   17 am
    33   17   22 1
    34   17   18 1
    35   18   19 1
    36   18   46 1
    37   18   47 1
    38   19   20 1
    39   19   48 1
    40   19   49 1
    41   20   21 1
    42   20   23 1
    43   21   22 1
    44   21   50 1
    45   21   51 1
    46   22   52 1
    47   22   53 1
    48   23   28 ar
    49   23   24 ar
    50   24   25 ar
    51   24   54 1
    52   25   26 ar
    53   25   55 1
    54   26   27 ar
    55   26   29 1
    56   27   28 ar
    57   27   56 1
    58   28   57 1
    59   29   30 1
    60   30   58 1
    61   30   59 1
    62   30   60 1
@<TRIPOS>MOLECULE
ZINC02931001
   45    48     0     0     0
SMALL
USER_CHARGES
N-[4-[5-[(4-methoxyphenyl)methyl]-1,2,4-oxadiazol-3-yl]phenyl]thiophene-2-carboxamide
@<TRIPOS>ATOM
      1 C1         -2.3120    3.5515   -6.3303 C.3       1 <0>         0.0256
      2 O1         -2.8633    2.4905   -5.5479 O.3       1 <0>        -0.3162
      3 C2         -2.4737    2.4155   -4.2481 C.ar      1 <0>         0.1366
      4 C3         -2.9699    1.4102   -3.4309 C.ar      1 <0>        -0.1526
      5 C4         -2.5719    1.3359   -2.1101 C.ar      1 <0>        -0.0628
      6 C5         -1.6797    2.2623   -1.6025 C.ar      1 <0>        -0.1396
      7 C6         -1.1881    3.2685   -2.4135 C.ar      1 <0>        -0.0557
      8 C7         -1.5787    3.3438   -3.7364 C.ar      1 <0>        -0.2098
      9 C8         -1.2473    2.1789   -0.1613 C.3       1 <0>         0.0202
     10 C9         -0.0191    1.3121   -0.0548 C.2       1 <0>         0.1909
     11 N1          1.2251    1.7123   -0.1391 N.2       1 <0>        -0.4720
     12 C10         1.9761    0.5973    0.0080 C.2       1 <0>         0.2167
     13 N2          1.1513   -0.4048    0.1714 N.2       1 <0>        -0.3754
     14 O2          0.0048   -0.0105    0.1377 O.3       1 <0>         0.0841
     15 C11         3.4574    0.5243   -0.0118 C.ar      1 <0>        -0.0395
     16 C12         4.2109    1.6819   -0.2018 C.ar      1 <0>        -0.0517
     17 C13         5.5874    1.6127   -0.2146 C.ar      1 <0>        -0.1465
     18 C14         6.2243    0.3880   -0.0492 C.ar      1 <0>         0.1685
     19 C15         5.4748   -0.7684    0.1347 C.ar      1 <0>        -0.1223
     20 C16         4.0982   -0.7028    0.1539 C.ar      1 <0>        -0.0597
     21 N3          7.6188    0.3193   -0.0683 N.am      1 <0>        -0.6682
     22 C17         8.2330   -0.7687   -0.5738 C.2       1 <0>         0.6078
     23 O3          7.5770   -1.6482   -1.1005 O.2       1 <0>        -0.5003
     24 C18         9.6908   -0.8927   -0.4892 C.2       1 <0>        -0.2500
     25 C19        10.5083   -1.9173   -0.9407 C.2       1 <0>        -0.0603
     26 C20        11.8576   -1.7789   -0.7307 C.2       1 <0>        -0.1795
     27 C21        12.3207   -0.6664   -0.1026 C.2       1 <0>        -0.1725
     28 S1         10.8767    0.2391    0.2146 S.3       1 <0>         0.1436
     29 H1         -2.5846    4.5093   -5.8871 H         1 <0>         0.0575
     30 H2         -1.2262    3.4585   -6.3550 H         1 <0>         0.0566
     31 H3         -2.7045    3.4961   -7.3457 H         1 <0>         0.1023
     32 H4         -3.6664    0.6862   -3.8270 H         1 <0>         0.1347
     33 H5         -2.9576    0.5533   -1.4736 H         1 <0>         0.1354
     34 H6         -0.4951    3.9938   -2.0133 H         1 <0>         0.1305
     35 H7         -1.1910    4.1273   -4.3706 H         1 <0>         0.1311
     36 H8         -2.0506    1.7457    0.4346 H         1 <0>         0.1138
     37 H9         -1.0195    3.1788    0.2081 H         1 <0>         0.1204
     38 H10         3.7164    2.6328   -0.3348 H         1 <0>         0.1412
     39 H11         6.1715    2.5099   -0.3570 H         1 <0>         0.1363
     40 H12         5.9715   -1.7188    0.2630 H         1 <0>         0.1432
     41 H13         3.5163   -1.6014    0.2968 H         1 <0>         0.1358
     42 H14         8.1455    1.0545    0.2822 H         1 <0>         0.4127
     43 H15        10.1012   -2.7862   -1.4364 H         1 <0>         0.1503
     44 H16        12.5434   -2.5450   -1.0612 H         1 <0>         0.1446
     45 H17        13.3413   -0.4073    0.1375 H         1 <0>         0.1940
@<TRIPOS>BOND
     1    1    2 1
     2    1   29 1
     3    1   30 1
     4    1   31 1
     5    2    3 1
     6    3    8 ar
     7    3    4 ar
     8    4    5 ar
     9    4   32 1
    10    5    6 ar
    11    5   33 1
    12    6    7 ar
    13    6    9 1
    14    7    8 ar
    15    7   34 1
    16    8   35 1
    17    9   10 1
    18    9   36 1
    19    9   37 1
    20   10   14 1
    21   10   11 2
    22   11   12 1
    23   12   13 2
    24   12   15 1
    25   13   14 1
    26   15   20 ar
    27   15   16 ar
    28   16   17 ar
    29   16   38 1
    30   17   18 ar
    31   17   39 1
    32   18   19 ar
    33   18   21 1
    34   19   20 ar
    35   19   40 1
    36   20   41 1
    37   21   22 am
    38   21   42 1
    39   22   23 2
    40   22   24 1
    41   24   28 1
    42   24   25 2
    43   25   26 1
    44   25   43 1
    45   26   27 2
    46   26   44 1
    47   27   28 1
    48   27   45 1
@<TRIPOS>MOLECULE
ZINC06860157
   49    51     0     0     0
SMALL
USER_CHARGES
isobutyl 2-(3,5-dimethylbenzofuran-2-yl)carbonylamino-4-methyl-thiazole-5-carboxylate
@<TRIPOS>ATOM
      1 C1         -1.2956   -0.7702    0.0103 C.3       1 <0>        -0.1146
      2 C2          0.0021   -0.0041    0.0020 C.ar      1 <0>        -0.1025
      3 C3         -0.0168    1.3842    0.0097 C.ar      1 <0>        -0.0715
      4 C4          1.1578    2.1047    0.0023 C.ar      1 <0>        -0.1093
      5 C5          2.3782    1.4389   -0.0129 C.ar      1 <0>         0.0792
      6 C6          2.3913    0.0316   -0.0201 C.ar      1 <0>        -0.1446
      7 C7          1.1891   -0.6802   -0.0125 C.ar      1 <0>        -0.0544
      8 C8          3.8025   -0.3515   -0.0344 C.2       1 <0>        -0.0410
      9 C9          4.5076    0.8098   -0.0348 C.2       1 <0>        -0.0546
     10 O1          3.6583    1.8584   -0.0220 O.3       1 <0>        -0.1846
     11 C10         5.9732    0.9089   -0.0471 C.2       1 <0>         0.6098
     12 O2          6.6511   -0.1011   -0.0577 O.2       1 <0>        -0.4681
     13 N1          6.5668    2.1190   -0.0467 N.am      1 <0>        -0.5963
     14 C11         7.9457    2.2123   -0.0583 C.2       1 <0>         0.2942
     15 N2          8.7025    3.2990   -0.0654 N.2       1 <0>        -0.5500
     16 C12        10.0073    3.2249   -0.0722 C.2       1 <0>         0.1946
     17 C13        10.5834    1.9613   -0.0834 C.2       1 <0>        -0.3207
     18 S1          9.1209    0.9341   -0.0751 S.3       1 <0>         0.2561
     19 C14        11.9933    1.5781   -0.0980 C.2       1 <0>         0.5657
     20 O3         12.8567    2.4354   -0.1021 O.2       1 <0>        -0.4937
     21 O4         12.3379    0.2735   -0.1068 O.3       1 <0>        -0.3452
     22 C15        13.7345   -0.0285   -0.1209 C.3       1 <0>         0.0709
     23 C16        13.9280   -1.5462   -0.1293 C.3       1 <0>        -0.0957
     24 C17        15.4167   -1.8698   -0.2701 C.3       1 <0>        -0.1469
     25 C18        13.3997   -2.1350    1.1804 C.3       1 <0>        -0.1495
     26 C19        10.8581    4.4688   -0.0744 C.3       1 <0>        -0.0952
     27 C20         4.3614   -1.7510   -0.0464 C.3       1 <0>        -0.1032
     28 H1         -1.6183   -0.9494   -1.0153 H         1 <0>         0.0741
     29 H2         -1.1511   -1.7241    0.5176 H         1 <0>         0.0696
     30 H3         -2.0560   -0.1914    0.5345 H         1 <0>         0.0707
     31 H4         -0.9627    1.9052    0.0169 H         1 <0>         0.1413
     32 H5          1.1305    3.1843    0.0080 H         1 <0>         0.1394
     33 H6          1.1982   -1.7601   -0.0176 H         1 <0>         0.1335
     34 H7          6.0262    2.9243   -0.0383 H         1 <0>         0.4352
     35 H8         14.1901    0.4007   -1.0133 H         1 <0>         0.0711
     36 H9         14.2064    0.3930    0.7666 H         1 <0>         0.0714
     37 H10        13.3815   -1.9775   -0.9681 H         1 <0>         0.0830
     38 H11        15.9632   -1.4385    0.5686 H         1 <0>         0.0593
     39 H12        15.5546   -2.9510   -0.2761 H         1 <0>         0.0665
     40 H13        15.7931   -1.4504   -1.2031 H         1 <0>         0.0590
     41 H14        13.5376   -3.2162    1.1744 H         1 <0>         0.0593
     42 H15        13.9462   -1.7037    2.0191 H         1 <0>         0.0551
     43 H16        12.3391   -1.9044    1.2806 H         1 <0>         0.0621
     44 H17        11.0536    4.7734   -1.1026 H         1 <0>         0.0864
     45 H18        10.3335    5.2687    0.4481 H         1 <0>         0.0799
     46 H19        11.8026    4.2639    0.4296 H         1 <0>         0.0974
     47 H20         4.4872   -2.0833   -1.0769 H         1 <0>         0.0861
     48 H21         5.3271   -1.7609    0.4590 H         1 <0>         0.0939
     49 H22         3.6742   -2.4211    0.4702 H         1 <0>         0.0768
@<TRIPOS>BOND
     1    1    2 1
     2    1   28 1
     3    1   29 1
     4    1   30 1
     5    2    7 ar
     6    2    3 ar
     7    3    4 ar
     8    3   31 1
     9    4    5 ar
    10    4   32 1
    11    5   10 1
    12    5    6 ar
    13    6    7 ar
    14    6    8 1
    15    7   33 1
    16    8    9 2
    17    8   27 1
    18    9   10 1
    19    9   11 1
    20   11   12 2
    21   11   13 am
    22   13   14 1
    23   13   34 1
    24   14   18 1
    25   14   15 2
    26   15   16 1
    27   16   17 2
    28   16   26 1
    29   17   18 1
    30   17   19 1
    31   19   20 2
    32   19   21 1
    33   21   22 1
    34   22   23 1
    35   22   35 1
    36   22   36 1
    37   23   24 1
    38   23   25 1
    39   23   37 1
    40   24   38 1
    41   24   39 1
    42   24   40 1
    43   25   41 1
    44   25   42 1
    45   25   43 1
    46   26   44 1
    47   26   45 1
    48   26   46 1
    49   27   47 1
    50   27   48 1
    51   27   49 1
@<TRIPOS>MOLECULE
ZINC11617515
   53    55     0     0     0
SMALL
USER_CHARGES
2-[1-(p-tolyl)tetrazol-5-yl]sulfanyl-N-(4-tert-butylphenyl)-propanamide
@<TRIPOS>ATOM
      1 C1          7.8798    4.0589    0.0565 C.3       1 <0>        -0.1210
      2 C2          6.7308    3.2441   -0.4792 C.ar      1 <0>        -0.0655
      3 C3          6.9714    2.0180   -1.0715 C.ar      1 <0>        -0.1024
      4 C4          5.9203    1.2691   -1.5635 C.ar      1 <0>        -0.0867
      5 C5          4.6213    1.7484   -1.4628 C.ar      1 <0>         0.1096
      6 C6          4.3834    2.9821   -0.8723 C.ar      1 <0>        -0.1070
      7 C7          5.4381    3.7244   -0.3779 C.ar      1 <0>        -0.0964
      8 N1          3.5522    0.9905   -1.9617 N.pl3     1 <0>        -0.3104
      9 C8          2.2939    0.8952   -1.4486 C.2       1 <0>         0.2017
     10 N2          1.6230    0.0747   -2.2284 N.2       1 <0>        -0.3273
     11 N3          2.3651   -0.3403   -3.1904 N.2       1 <0>        -0.0254
     12 N4          3.5475    0.1645   -3.0995 N.2       1 <0>        -0.0669
     13 S1          1.6833    1.7095   -0.0103 S.3       1 <0>         0.1270
     14 C9         -0.0171    1.0893    0.0040 C.3       1 <0>        -0.1258
     15 H1         -0.0064   -0.0006   -0.0083 H         1 <0>         0.1319
     16 C10        -0.7588    1.6060   -1.2304 C.3       1 <0>        -0.1481
     17 C11        -0.7170    1.5708    1.2488 C.2       1 <0>         0.5393
     18 O1         -0.3408    2.5817    1.8034 O.2       1 <0>        -0.5021
     19 N5         -1.7609    0.8781    1.7456 N.am      1 <0>        -0.6617
     20 C12        -2.3492    1.2697    2.9533 C.ar      1 <0>         0.1323
     21 C13        -2.8516    0.3126    3.8251 C.ar      1 <0>        -0.1372
     22 C14        -3.4278    0.7022    5.0183 C.ar      1 <0>        -0.1030
     23 C15        -3.5138    2.0441    5.3406 C.ar      1 <0>        -0.0784
     24 C16        -3.0188    2.9999    4.4725 C.ar      1 <0>        -0.0974
     25 C17        -2.4371    2.6166    3.2799 C.ar      1 <0>        -0.1148
     26 C18        -4.1479    2.4659    6.6410 C.3       1 <0>        -0.0297
     27 C19        -5.3523    3.3646    6.3533 C.3       1 <0>        -0.1395
     28 C20        -4.6089    1.2258    7.4095 C.3       1 <0>        -0.1457
     29 C21        -3.1263    3.2356    7.4806 C.3       1 <0>        -0.1399
     30 H2          8.2561    4.7159   -0.7276 H         1 <0>         0.0785
     31 H3          7.5379    4.6585    0.9001 H         1 <0>         0.0734
     32 H4          8.6767    3.3914    0.3846 H         1 <0>         0.0727
     33 H5          7.9821    1.6455   -1.1493 H         1 <0>         0.1398
     34 H6          6.1089    0.3116   -2.0263 H         1 <0>         0.1387
     35 H7          3.3743    3.3596   -0.7967 H         1 <0>         0.1396
     36 H8          5.2533    4.6825    0.0849 H         1 <0>         0.1416
     37 H9         -0.2526    1.2577   -2.1307 H         1 <0>         0.0914
     38 H10        -1.7828    1.2325   -1.2217 H         1 <0>         0.0789
     39 H11        -0.7695    2.6959   -1.2181 H         1 <0>         0.0758
     40 H12        -2.1043    0.1080    1.2661 H         1 <0>         0.4149
     41 H13        -2.7884   -0.7355    3.5721 H         1 <0>         0.1260
     42 H14        -3.8154   -0.0419    5.6985 H         1 <0>         0.1318
     43 H15        -3.0875    4.0472    4.7271 H         1 <0>         0.1253
     44 H16        -2.0507    3.3635    2.6023 H         1 <0>         0.1387
     45 H17        -6.0801    2.8162    5.7552 H         1 <0>         0.0566
     46 H18        -5.8110    3.6696    7.2939 H         1 <0>         0.0593
     47 H19        -5.0239    4.2480    5.8058 H         1 <0>         0.0572
     48 H20        -3.7509    0.5856    7.6145 H         1 <0>         0.0589
     49 H21        -5.0676    1.5309    8.3501 H         1 <0>         0.0593
     50 H22        -5.3368    0.6775    6.8114 H         1 <0>         0.0590
     51 H23        -2.7979    4.1191    6.9331 H         1 <0>         0.0573
     52 H24        -3.5850    3.5407    8.4211 H         1 <0>         0.0593
     53 H25        -2.2683    2.5954    7.6856 H         1 <0>         0.0566
@<TRIPOS>BOND
     1    1    2 1
     2    1   30 1
     3    1   31 1
     4    1   32 1
     5    2    7 ar
     6    2    3 ar
     7    3    4 ar
     8    3   33 1
     9    4    5 ar
    10    4   34 1
    11    5    6 ar
    12    5    8 1
    13    6    7 ar
    14    6   35 1
    15    7   36 1
    16    8   12 1
    17    8    9 1
    18    9   10 2
    19    9   13 1
    20   10   11 1
    21   11   12 2
    22   13   14 1
    23   14   15 1
    24   14   16 1
    25   14   17 1
    26   16   37 1
    27   16   38 1
    28   16   39 1
    29   17   18 2
    30   17   19 am
    31   19   20 1
    32   19   40 1
    33   20   25 ar
    34   20   21 ar
    35   21   22 ar
    36   21   41 1
    37   22   23 ar
    38   22   42 1
    39   23   24 ar
    40   23   26 1
    41   24   25 ar
    42   24   43 1
    43   25   44 1
    44   26   27 1
    45   26   28 1
    46   26   29 1
    47   27   45 1
    48   27   46 1
    49   27   47 1
    50   28   48 1
    51   28   49 1
    52   28   50 1
    53   29   51 1
    54   29   52 1
    55   29   53 1
@<TRIPOS>MOLECULE
ZINC24093712
   60    62     0     0     0
SMALL
USER_CHARGES
N-(1-cyclohexenyl)-N-ethyl-2-[(4S)-4-(4-isopropylphenyl)-4-methyl-2,5-dioxo-imidazolidin-1-yl]acetamide
@<TRIPOS>ATOM
      1 C1          2.6835    9.3526    4.3305 C.3       1 <0>        -0.1798
      2 C2          3.2981    8.0983    4.9551 C.3       1 <0>         0.0979
      3 N1          2.3340    6.9972    4.8888 N.am      1 <0>        -0.5688
      4 C3          1.4699    6.7635    5.9550 C.2       1 <0>         0.0887
      5 C4          1.5899    5.6400    6.6062 C.2       1 <0>        -0.1339
      6 C5          0.7276    5.2501    7.7710 C.3       1 <0>        -0.0874
      7 C6          0.0074    6.4791    8.3297 C.3       1 <0>        -0.1233
      8 C7         -0.6507    7.2283    7.1643 C.3       1 <0>        -0.1177
      9 C8          0.4522    7.8170    6.2819 C.3       1 <0>        -0.0810
     10 C9          2.2837    6.2105    3.7956 C.2       1 <0>         0.5025
     11 O1          1.5490    5.2457    3.7761 O.2       1 <0>        -0.5104
     12 C10         3.1403    6.5297    2.5975 C.3       1 <0>         0.0976
     13 N2          2.9051    5.5333    1.5496 N.am      1 <0>        -0.5608
     14 C11         1.9649    5.6501    0.5911 C.2       1 <0>         0.5406
     15 O2          1.1839    6.5648    0.4391 O.2       1 <0>        -0.4593
     16 C12         2.0877    4.4004   -0.2578 C.3       1 <0>         0.1592
     17 N3          3.1858    3.6545    0.3808 N.am      1 <0>        -0.7255
     18 C13         3.5976    4.3953    1.4255 C.2       1 <0>         0.7216
     19 O3          4.4983    4.0676    2.1728 O.2       1 <0>        -0.5398
     20 C14         2.4462    4.7627   -1.7005 C.3       1 <0>        -0.1448
     21 C15         0.8098    3.6027   -0.2151 C.ar      1 <0>        -0.0981
     22 C16         0.8483    2.2277   -0.3524 C.ar      1 <0>        -0.0930
     23 C17        -0.3239    1.4961   -0.3137 C.ar      1 <0>        -0.1167
     24 C18        -1.5351    2.1400   -0.1429 C.ar      1 <0>        -0.0653
     25 C19        -1.5732    3.5144    0.0002 C.ar      1 <0>        -0.1084
     26 C20        -0.4010    4.2461   -0.0391 C.ar      1 <0>        -0.1022
     27 C21        -2.8136    1.3430   -0.1068 C.3       1 <0>        -0.0593
     28 C22        -3.5125    1.5604    1.2367 C.3       1 <0>        -0.1471
     29 C23        -3.7331    1.8023   -1.2402 C.3       1 <0>        -0.1460
     30 H1          3.4074   10.1793    4.3803 H         1 <0>         0.0747
     31 H2          1.7730    9.6287    4.8826 H         1 <0>         0.0660
     32 H3          2.4283    9.1515    3.2796 H         1 <0>         0.0585
     33 H4          4.2086    7.8222    4.4030 H         1 <0>         0.0832
     34 H5          3.5534    8.2994    6.0060 H         1 <0>         0.0899
     35 H6          2.3594    4.9120    6.3098 H         1 <0>         0.1075
     36 H7         -0.0199    4.5127    7.4432 H         1 <0>         0.0772
     37 H8          1.3547    4.8103    8.5605 H         1 <0>         0.0762
     38 H9         -0.7589    6.1587    9.0509 H         1 <0>         0.0681
     39 H10         0.7346    7.1327    8.8336 H         1 <0>         0.0658
     40 H11        -1.2663    6.5288    6.5797 H         1 <0>         0.0664
     41 H12        -1.2865    8.0345    7.5590 H         1 <0>         0.0702
     42 H13         0.9401    8.6442    6.8182 H         1 <0>         0.0761
     43 H14         0.0053    8.1965    5.3512 H         1 <0>         0.0730
     44 H15         2.8818    7.5292    2.2178 H         1 <0>         0.1292
     45 H16         4.2007    6.5114    2.8895 H         1 <0>         0.1303
     46 H17         3.5034    2.6846   -0.0295 H         1 <0>         0.4686
     47 H18         2.5305    3.8437   -2.2992 H         1 <0>         0.0840
     48 H19         3.4060    5.2998   -1.7160 H         1 <0>         0.0725
     49 H20         1.6597    5.4050   -2.1235 H         1 <0>         0.0862
     50 H21         1.7943    1.7251   -0.4903 H         1 <0>         0.1209
     51 H22        -0.2938    0.4219   -0.4213 H         1 <0>         0.1257
     52 H23        -2.5191    4.0170    0.1380 H         1 <0>         0.1246
     53 H24        -0.4311    5.3203    0.0682 H         1 <0>         0.1365
     54 H25        -2.5680    0.2782   -0.2325 H         1 <0>         0.0791
     55 H26        -4.4457    0.9786    1.2629 H         1 <0>         0.0604
     56 H27        -3.7428    2.6287    1.3615 H         1 <0>         0.0578
     57 H28        -2.8515    1.2301    2.0515 H         1 <0>         0.0567
     58 H29        -4.6663    1.2205   -1.2138 H         1 <0>         0.0602
     59 H30        -3.2307    1.6459   -2.2062 H         1 <0>         0.0570
     60 H31        -3.9634    2.8707   -1.1154 H         1 <0>         0.0580
@<TRIPOS>BOND
     1    1    2 1
     2    1   30 1
     3    1   31 1
     4    1   32 1
     5    2    3 1
     6    2   33 1
     7    2   34 1
     8    3    4 1
     9    3   10 am
    10    4    9 1
    11    4    5 2
    12    5    6 1
    13    5   35 1
    14    6    7 1
    15    6   36 1
    16    6   37 1
    17    7    8 1
    18    7   38 1
    19    7   39 1
    20    8    9 1
    21    8   40 1
    22    8   41 1
    23    9   42 1
    24    9   43 1
    25   10   11 2
    26   10   12 1
    27   12   13 1
    28   12   44 1
    29   12   45 1
    30   13   18 am
    31   13   14 am
    32   14   15 2
    33   14   16 1
    34   16   17 1
    35   16   20 1
    36   16   21 1
    37   17   18 am
    38   17   46 1
    39   18   19 2
    40   20   47 1
    41   20   48 1
    42   20   49 1
    43   21   26 ar
    44   21   22 ar
    45   22   23 ar
    46   22   50 1
    47   23   24 ar
    48   23   51 1
    49   24   25 ar
    50   24   27 1
    51   25   26 ar
    52   25   52 1
    53   26   53 1
    54   27   28 1
    55   27   29 1
    56   27   54 1
    57   28   55 1
    58   28   56 1
    59   28   57 1
    60   29   58 1
    61   29   59 1
    62   29   60 1
@<TRIPOS>MOLECULE
ZINC59300459
   42    44     0     0     0
SMALL
USER_CHARGES

@<TRIPOS>ATOM
      1 C1         -0.0429    1.5276    0.0268 C.3       1 <0>        -0.1527
      2 C2         -0.0260   -0.0023    0.0199 C.3       1 <0>         0.0463
      3 O1          0.6728   -0.4761    1.1728 O.3       1 <0>        -0.2732
      4 C3          0.7792   -1.8220    1.3194 C.2       1 <0>         0.2128
      5 C4          0.2393   -2.6747    0.3898 C.2       1 <0>        -0.2494
      6 C5          0.3723   -4.0383    0.5805 C.2       1 <0>        -0.0205
      7 S1          1.2836   -4.1220    2.1129 S.3       1 <0>         0.1286
      8 C6          1.4442   -2.3699    2.4142 C.2       1 <0>        -0.3125
      9 C7          2.0823   -1.7068    3.4909 C.2       1 <0>         0.6171
     10 O2          2.0934   -0.4897    3.5359 O.2       1 <0>        -0.4927
     11 N1          2.6773   -2.4227    4.4656 N.am      1 <0>        -0.6702
     12 C8          3.3884   -1.7690    5.4800 C.ar      1 <0>         0.1165
     13 C9          2.9574   -0.5349    5.9468 C.ar      1 <0>        -0.0084
     14 C10         3.6597    0.1082    6.9476 C.ar      1 <0>        -0.0806
     15 C11         4.7937   -0.4766    7.4859 C.ar      1 <0>         0.1875
     16 C12         5.2271   -1.7073    7.0226 C.ar      1 <0>        -0.1726
     17 C13         4.5240   -2.3580    6.0251 C.ar      1 <0>         0.1581
     18 F1          4.9430   -3.5616    5.5770 F         1 <0>        -0.1073
     19 F2          5.4785    0.1550    8.4643 F         1 <0>        -0.0913
     20 N2          3.1997    1.4242    7.4451 N.pl3     1 <0>         0.0354
     21 O3          2.2099    1.9357    6.9755 O.2       1 <0>        -0.1394
     22 O4          3.8137    1.9877    8.3210 O.3       1 <0>        -0.1393
     23 C14        -0.1163   -5.1448   -0.2688 C.ar      1 <0>        -0.0333
     24 C15        -0.8130   -4.8694   -1.4467 C.ar      1 <0>        -0.0838
     25 C16        -1.2659   -5.9069   -2.2351 C.ar      1 <0>        -0.1169
     26 C17        -1.0312   -7.2180   -1.8605 C.ar      1 <0>        -0.0979
     27 C18        -0.3413   -7.4979   -0.6943 C.ar      1 <0>        -0.1155
     28 C19         0.1220   -6.4697    0.1003 C.ar      1 <0>        -0.0933
     29 H1          0.9805    1.9023    0.0108 H         1 <0>         0.0692
     30 H2         -0.5759    1.8890   -0.8526 H         1 <0>         0.0814
     31 H3         -0.5453    1.8814    0.9271 H         1 <0>         0.0705
     32 H4         -1.0495   -0.3770    0.0359 H         1 <0>         0.0665
     33 H5          0.4764   -0.3561   -0.8803 H         1 <0>         0.0658
     34 H6         -0.2801   -2.2883   -0.4747 H         1 <0>         0.1546
     35 H7          2.6131   -3.3905    4.4646 H         1 <0>         0.4177
     36 H8          2.0736   -0.0773    5.5274 H         1 <0>         0.1908
     37 H9          6.1122   -2.1613    7.4433 H         1 <0>         0.1798
     38 H10        -0.9975   -3.8465   -1.7399 H         1 <0>         0.1287
     39 H11        -1.8051   -5.6953   -3.1466 H         1 <0>         0.1326
     40 H12        -1.3885   -8.0266   -2.4809 H         1 <0>         0.1306
     41 H13        -0.1615   -8.5235   -0.4075 H         1 <0>         0.1327
     42 H14         0.6643   -6.6895    1.0081 H         1 <0>         0.1274
@<TRIPOS>BOND
     1    1    2 1
     2    1   29 1
     3    1   30 1
     4    1   31 1
     5    2    3 1
     6    2   32 1
     7    2   33 1
     8    3    4 1
     9    4    8 2
    10    4    5 1
    11    5    6 2
    12    5   34 1
    13    6    7 1
    14    6   23 1
    15    7    8 1
    16    8    9 1
    17    9   10 2
    18    9   11 am
    19   11   12 1
    20   11   35 1
    21   12   17 ar
    22   12   13 ar
    23   13   14 ar
    24   13   36 1
    25   14   15 ar
    26   14   20 1
    27   15   16 ar
    28   15   19 1
    29   16   17 ar
    30   16   37 1
    31   17   18 1
    32   20   21 2
    33   20   22 1
    34   23   28 ar
    35   23   24 ar
    36   24   25 ar
    37   24   38 1
    38   25   26 ar
    39   25   39 1
    40   26   27 ar
    41   26   40 1
    42   27   28 ar
    43   27   41 1
    44   28   42 1
@<TRIPOS>MOLECULE
ZINC00272866
   28    29     0     0     0
SMALL
USER_CHARGES
4-chloro-N-(4-chloro-3-nitro-phenyl)-benzamide
@<TRIPOS>ATOM
      1 C1          4.8581   -0.3249   -0.2549 C.ar      1 <0>        -0.0712
      2 C2          6.0574   -0.9939   -0.3795 C.ar      1 <0>        -0.1166
      3 C3          7.2414   -0.2839   -0.4914 C.ar      1 <0>        -0.0050
      4 C4          7.2282    1.1012   -0.4843 C.ar      1 <0>        -0.1156
      5 C5          6.0347    1.7815   -0.3656 C.ar      1 <0>        -0.0389
      6 C6          4.8379    1.0713   -0.2525 C.ar      1 <0>        -0.1385
      7 C7          3.5556    1.7942   -0.1245 C.2       1 <0>         0.5635
      8 O1          3.5413    3.0098   -0.1176 O.2       1 <0>        -0.5024
      9 N1          2.4020    1.1060   -0.0154 N.am      1 <0>        -0.6677
     10 C8          1.1805    1.7876    0.0081 C.ar      1 <0>         0.1529
     11 C9          0.0582    1.2248   -0.5861 C.ar      1 <0>        -0.0815
     12 C10        -1.1464    1.8994   -0.5611 C.ar      1 <0>        -0.0892
     13 C11        -1.2362    3.1352    0.0559 C.ar      1 <0>        -0.0017
     14 C12        -0.1210    3.6956    0.6532 C.ar      1 <0>        -0.0207
     15 C13         1.0877    3.0277    0.6260 C.ar      1 <0>        -0.0511
     16 N2         -0.2221    5.0148    1.3170 N.pl3     1 <0>         0.0244
     17 O2          0.7603    5.5108    1.8389 O.2       1 <0>        -0.1531
     18 O3         -1.2876    5.6043    1.3413 O.3       1 <0>        -0.1309
     19 Cl1        -2.7523    3.9801    0.0866 Cl        1 <0>        -0.0010
     20 Cl2         8.7479   -1.1333   -0.6418 Cl        1 <0>        -0.0524
     21 H1          3.9360   -0.8796   -0.1636 H         1 <0>         0.1363
     22 H2          6.0739   -2.0738   -0.3860 H         1 <0>         0.1447
     23 H3          8.1546    1.6494   -0.5723 H         1 <0>         0.1464
     24 H4          6.0256    2.8614   -0.3606 H         1 <0>         0.1504
     25 H5          2.4186    0.1382    0.0467 H         1 <0>         0.4193
     26 H6          0.1277    0.2606   -1.0677 H         1 <0>         0.1574
     27 H7         -2.0193    1.4623   -1.0229 H         1 <0>         0.1643
     28 H8          1.9588    3.4675    1.0887 H         1 <0>         0.1779
@<TRIPOS>BOND
     1    1    6 ar
     2    1    2 ar
     3    1   21 1
     4    2    3 ar
     5    2   22 1
     6    3    4 ar
     7    3   20 1
     8    4    5 ar
     9    4   23 1
    10    5    6 ar
    11    5   24 1
    12    6    7 1
    13    7    8 2
    14    7    9 am
    15    9   10 1
    16    9   25 1
    17   10   15 ar
    18   10   11 ar
    19   11   12 ar
    20   11   26 1
    21   12   13 ar
    22   12   27 1
    23   13   14 ar
    24   13   19 1
    25   14   15 ar
    26   14   16 1
    27   15   28 1
    28   16   17 2
    29   16   18 1
@<TRIPOS>MOLECULE
ZINC06954635
   42    45     0     0     0
SMALL
USER_CHARGES
(3-methoxyphenyl)-nitro-BLAH
@<TRIPOS>ATOM
      1 C1          0.7655    3.1851    5.8975 C.3       1 <0>         0.0267
      2 O1          0.6316    2.7362    4.5474 O.3       1 <0>        -0.3173
      3 C2         -0.1277    3.4978    3.7165 C.ar      1 <0>         0.1285
      4 C3         -0.7316    4.6534    4.1908 C.ar      1 <0>        -0.2064
      5 C4         -1.5031    5.4255    3.3444 C.ar      1 <0>        -0.0754
      6 C5         -1.6736    5.0478    2.0251 C.ar      1 <0>        -0.1498
      7 C6         -1.0734    3.8965    1.5502 C.ar      1 <0>        -0.0384
      8 C7         -0.3053    3.1178    2.3943 C.ar      1 <0>        -0.1347
      9 C8         -1.2622    3.4873    0.1121 C.3       1 <0>         0.1457
     10 H1         -2.2726    3.7334   -0.2145 H         1 <0>         0.1170
     11 C9         -0.2498    4.1955   -0.7633 C.3       1 <0>        -0.1244
     12 H2         -0.2530    3.8147   -1.7847 H         1 <0>         0.0960
     13 C10        -0.2178    5.7275   -0.7352 C.3       1 <0>        -0.0908
     14 C11         1.2535    6.0065   -1.0530 C.2       1 <0>        -0.1582
     15 C12         2.0013    4.9745   -0.6777 C.2       1 <0>        -0.1528
     16 C13         1.1205    3.9550   -0.0562 C.3       1 <0>        -0.0461
     17 H3          0.9872    4.2136    0.9943 H         1 <0>         0.1087
     18 C14         1.3950    2.5040   -0.1462 C.ar      1 <0>        -0.1164
     19 C15         2.6798    2.0144   -0.2529 C.ar      1 <0>        -0.0359
     20 C16         2.9092    0.6525   -0.3025 C.ar      1 <0>        -0.1446
     21 C17         1.8406   -0.2237   -0.2446 C.ar      1 <0>        -0.0358
     22 C18         0.5542    0.2570   -0.1447 C.ar      1 <0>        -0.0831
     23 C19         0.3054    1.6303   -0.1004 C.ar      1 <0>         0.2083
     24 N1         -1.0237    2.0423   -0.0339 N.pl3     1 <0>        -0.6188
     25 N2         -0.5786   -0.6935   -0.0842 N.pl3     1 <0>         0.0383
     26 O2         -0.3700   -1.8929   -0.1223 O.2       1 <0>        -0.1822
     27 O3         -1.7196   -0.2763    0.0038 O.3       1 <0>        -0.1500
     28 H4         -0.2188    3.2346    6.3632 H         1 <0>         0.0569
     29 H5          1.3948    2.4884    6.4512 H         1 <0>         0.1015
     30 H6          1.2225    4.1746    5.9077 H         1 <0>         0.0562
     31 H7         -0.5981    4.9492    5.2209 H         1 <0>         0.1289
     32 H8         -1.9733    6.3251    3.7132 H         1 <0>         0.1285
     33 H9         -2.2770    5.6530    1.3648 H         1 <0>         0.1281
     34 H10         0.1599    2.2163    2.0239 H         1 <0>         0.1284
     35 H11        -0.4834    6.1062    0.2518 H         1 <0>         0.0913
     36 H12        -0.8699    6.1471   -1.5013 H         1 <0>         0.0778
     37 H13         1.6280    6.9083   -1.5145 H         1 <0>         0.1328
     38 H14         3.0708    4.8919   -0.8033 H         1 <0>         0.1324
     39 H15         3.5127    2.7003   -0.2984 H         1 <0>         0.1406
     40 H16         3.9175    0.2745   -0.3857 H         1 <0>         0.1472
     41 H17         2.0159   -1.2889   -0.2775 H         1 <0>         0.1536
     42 H18        -1.5586    1.6632   -0.8008 H         1 <0>         0.3875
@<TRIPOS>BOND
     1    1    2 1
     2    1   28 1
     3    1   29 1
     4    1   30 1
     5    2    3 1
     6    3    8 ar
     7    3    4 ar
     8    4    5 ar
     9    4   31 1
    10    5    6 ar
    11    5   32 1
    12    6    7 ar
    13    6   33 1
    14    7    8 ar
    15    7    9 1
    16    8   34 1
    17    9   10 1
    18    9   24 1
    19    9   11 1
    20   11   12 1
    21   11   16 1
    22   11   13 1
    23   13   14 1
    24   13   35 1
    25   13   36 1
    26   14   15 2
    27   14   37 1
    28   15   16 1
    29   15   38 1
    30   16   17 1
    31   16   18 1
    32   18   23 ar
    33   18   19 ar
    34   19   20 ar
    35   19   39 1
    36   20   21 ar
    37   20   40 1
    38   21   22 ar
    39   21   41 1
    40   22   23 ar
    41   22   25 1
    42   23   24 1
    43   24   42 1
    44   25   26 2
    45   25   27 1
@<TRIPOS>MOLECULE
ZINC23698168
   44    47     0     0     0
SMALL
USER_CHARGES
2-[[(3R,5R)-3,5-dimethyl-1-piperidyl]methyl]-3H-benzofurano[2,3-e]pyrimidin-4-one
@<TRIPOS>ATOM
      1 C1         -1.5161    8.1901    2.5246 C.3       1 <0>        -0.1490
      2 C2         -2.3167    8.1938    1.2208 C.3       1 <0>        -0.1070
      3 H1         -1.6541    7.9223    0.3858 H         1 <0>         0.0947
      4 C3         -2.8989    9.5897    0.9823 C.3       1 <0>        -0.1281
      5 C4         -3.7476    9.5694   -0.2920 C.3       1 <0>        -0.1093
      6 H2         -4.2022   10.5587   -0.4490 H         1 <0>         0.1132
      7 C5         -4.8484    8.5158   -0.1491 C.3       1 <0>        -0.0025
      8 N1         -4.2404    7.1983    0.0766 N.4       1 <0>        -0.3871
      9 C6         -3.4590    7.1801    1.3198 C.3       1 <0>        -0.0057
     10 C7         -5.2606    6.1414    0.0806 C.3       1 <0>         0.0901
     11 C8         -4.5874    4.7933    0.0675 C.ar      1 <0>         0.3036
     12 N2         -5.3529    3.6738    0.0688 N.ar      1 <0>        -0.6210
     13 C9         -4.7791    2.4515    0.0582 C.ar      1 <0>         0.5351
     14 O1         -5.4629    1.4414    0.0601 O.3       1 <0>        -0.5629
     15 C10        -3.3682    2.3692    0.0453 C.ar      1 <0>        -0.1277
     16 C11        -2.6425    3.5563    0.0442 C.ar      1 <0>         0.1200
     17 N3         -3.2851    4.7352    0.0552 N.ar      1 <0>        -0.6102
     18 C12        -1.2269    3.1582    0.0293 C.ar      1 <0>        -0.1235
     19 C13        -0.0223    3.8585    0.0216 C.ar      1 <0>        -0.0524
     20 C14         1.1692    3.1675    0.0074 C.ar      1 <0>        -0.1520
     21 C15         1.1716    1.7802    0.0004 C.ar      1 <0>        -0.0825
     22 C16        -0.0126    1.0758    0.0080 C.ar      1 <0>        -0.1190
     23 C17        -1.2266    1.7540    0.0174 C.ar      1 <0>         0.0834
     24 O2         -2.5079    1.3301    0.0325 O.3       1 <0>        -0.1732
     25 C18        -2.8616    9.2231   -1.4903 C.3       1 <0>        -0.1729
     26 H3         -0.6953    8.9188    2.4529 H         1 <0>         0.0706
     27 H4         -1.1011    7.1861    2.6972 H         1 <0>         0.0682
     28 H5         -2.1764    8.4627    3.3611 H         1 <0>         0.0621
     29 H6         -3.5260    9.8768    1.8393 H         1 <0>         0.0784
     30 H7         -2.0792   10.3144    0.8687 H         1 <0>         0.0878
     31 H8         -5.4932    8.7726    0.7043 H         1 <0>         0.1241
     32 H9         -5.4512    8.4882   -1.0688 H         1 <0>         0.1275
     33 H10        -3.0435    6.1737    1.4765 H         1 <0>         0.1548
     34 H11        -4.1107    7.4435    2.1659 H         1 <0>         0.1112
     35 H12        -5.8800    6.2331    0.9850 H         1 <0>         0.1402
     36 H13        -5.8966    6.2423   -0.8112 H         1 <0>         0.1442
     37 H14        -0.0228    4.9385    0.0271 H         1 <0>         0.1241
     38 H15         2.1046    3.7074    0.0014 H         1 <0>         0.1288
     39 H16         2.1108    1.2471   -0.0114 H         1 <0>         0.1350
     40 H17         0.0021   -0.0041    0.0020 H         1 <0>         0.1335
     41 H18        -3.4718    9.2087   -2.4054 H         1 <0>         0.0714
     42 H19        -2.4076    8.2330   -1.3366 H         1 <0>         0.0581
     43 H20        -2.0684    9.9787   -1.5903 H         1 <0>         0.0806
     44 H21        -3.5498    7.0006   -0.7565 H         1 <0>         0.4450
@<TRIPOS>BOND
     1    1    2 1
     2    1   26 1
     3    1   27 1
     4    1   28 1
     5    2    3 1
     6    2    9 1
     7    2    4 1
     8    4    5 1
     9    4   29 1
    10    4   30 1
    11    5    6 1
    12    5    7 1
    13    5   25 1
    14    7    8 1
    15    7   31 1
    16    7   32 1
    17    8    9 1
    18    8   10 1
    19    8   44 1
    20    9   33 1
    21    9   34 1
    22   10   11 1
    23   10   35 1
    24   10   36 1
    25   11   17 ar
    26   11   12 ar
    27   12   13 ar
    28   13   14 1
    29   13   15 ar
    30   15   24 1
    31   15   16 ar
    32   16   17 ar
    33   16   18 1
    34   18   23 ar
    35   18   19 ar
    36   19   20 ar
    37   19   37 1
    38   20   21 ar
    39   20   38 1
    40   21   22 ar
    41   21   39 1
    42   22   23 ar
    43   22   40 1
    44   23   24 1
    45   25   41 1
    46   25   42 1
    47   25   43 1
@<TRIPOS>MOLECULE
ZINC38971405
   33    36     0     0     0
SMALL
USER_CHARGES

@<TRIPOS>ATOM
      1 C1         -0.3806    1.6899    0.8125 C.2       1 <0>        -0.2172
      2 C2          0.9832    1.9971    0.6012 C.2       1 <0>        -0.1761
      3 C3          1.6448    0.8265    0.5616 C.2       1 <0>         0.0031
      4 O1          0.7590   -0.1677    0.7368 O.3       1 <0>        -0.1597
      5 C4         -0.4708    0.3500    0.8894 C.2       1 <0>        -0.0315
      6 C5          3.1282    0.6591    0.3553 C.3       1 <0>         0.2291
      7 H1          3.3501    0.5817   -0.7091 H         1 <0>         0.1609
      8 N1          3.8467    1.7964    0.9358 N.2       1 <0>        -0.4289
      9 C6          4.6497    1.3624    1.8643 C.2       1 <0>         0.1413
     10 C7          5.5904    2.0760    2.7516 C.2       1 <0>        -0.0318
     11 C8          6.3165    1.3776    3.6413 C.2       1 <0>        -0.1158
     12 C9          6.1777   -0.0802    3.7328 C.2       1 <0>         0.2645
     13 C10         5.2842   -0.7761    2.8923 C.2       1 <0>        -0.2250
     14 C11         4.5320   -0.1081    1.9798 C.2       1 <0>         0.1724
     15 N2          3.6008   -0.5421    1.0560 N.2       1 <0>        -0.4733
     16 N3          6.9046   -0.7545    4.6200 N.am      1 <0>        -0.6687
     17 C12         7.6681   -0.0930    5.5036 C.2       1 <0>         0.6253
     18 O2          7.1669    0.7426    6.2374 O.2       1 <0>        -0.4494
     19 C13         9.1071   -0.3752    5.5870 C.2       1 <0>        -0.2955
     20 C14        10.0609    0.1851    6.4238 C.2       1 <0>        -0.0472
     21 C15        11.3424   -0.2862    6.2681 C.2       1 <0>        -0.1917
     22 C16        11.5850   -1.2399    5.3345 C.2       1 <0>        -0.2091
     23 S1         10.0816   -1.5328    4.6444 S.3       1 <0>         0.2393
     24 H2         -1.1932    2.3957    0.9001 H         1 <0>         0.1527
     25 H3          1.4115    2.9825    0.4920 H         1 <0>         0.1544
     26 H4         -1.3783   -0.2139    1.0475 H         1 <0>         0.2073
     27 H5          5.6936    3.1490    2.6864 H         1 <0>         0.1567
     28 H6          7.0064    1.8929    4.2932 H         1 <0>         0.1520
     29 H7          5.1973   -1.8494    2.9751 H         1 <0>         0.1430
     30 H8          6.8827   -1.7242    4.6282 H         1 <0>         0.4282
     31 H9          9.8123    0.9437    7.1512 H         1 <0>         0.1535
     32 H10        12.1451    0.0977    6.8801 H         1 <0>         0.1435
     33 H11        12.5281   -1.7077    5.0934 H         1 <0>         0.1938
@<TRIPOS>BOND
     1    1    5 2
     2    1    2 1
     3    1   24 1
     4    2    3 2
     5    2   25 1
     6    3    4 1
     7    3    6 1
     8    4    5 1
     9    5   26 1
    10    6    7 1
    11    6   15 1
    12    6    8 1
    13    8    9 2
    14    9   14 1
    15    9   10 1
    16   10   11 2
    17   10   27 1
    18   11   12 1
    19   11   28 1
    20   12   13 1
    21   12   16 2
    22   13   14 2
    23   13   29 1
    24   14   15 1
    25   16   17 am
    26   16   30 1
    27   17   18 2
    28   17   19 1
    29   19   23 1
    30   19   20 2
    31   20   21 1
    32   20   31 1
    33   21   22 2
    34   21   32 1
    35   22   23 1
    36   22   33 1
@<TRIPOS>MOLECULE
ZINC59168620
   29    32     0     0     0
SMALL
USER_CHARGES

@<TRIPOS>ATOM
      1 C1         -0.0166    1.3752    0.0096 C.ar      1 <0>        -0.1163
      2 C2          1.1702    2.0869    0.0021 C.ar      1 <0>        -0.0857
      3 C3          2.3828    1.4219   -0.0135 C.ar      1 <0>        -0.1119
      4 C4          2.4162    0.0412   -0.0213 C.ar      1 <0>         0.0003
      5 C5          1.2218   -0.6826   -0.0133 C.ar      1 <0>        -0.0253
      6 C6          0.0021   -0.0041    0.0020 C.ar      1 <0>        -0.0823
      7 C7          1.2492   -2.1606   -0.0220 C.2       1 <0>         0.2758
      8 N1          2.3211   -2.9132   -0.0315 N.2       1 <0>        -0.2320
      9 N2          1.9856   -4.1550   -0.0487 N.2       1 <0>        -0.2244
     10 C8          0.6914   -4.2576   -0.0682 C.2       1 <0>         0.1578
     11 N3          0.1408   -3.0019   -0.0156 N.pl3     1 <0>        -0.3565
     12 N4         -1.2149   -2.8720    0.0443 N.3       1 <0>        -0.4481
     13 C9         -1.9808   -4.0491   -0.4454 C.3       1 <0>         0.2131
     14 H1         -2.2086   -3.9657   -1.5080 H         1 <0>         0.1719
     15 S1         -0.7126   -5.3509   -0.1336 S.3       1 <0>        -0.0232
     16 C10        -3.2293   -4.2756    0.3677 C.2       1 <0>        -0.0474
     17 C11        -4.3723   -4.8238   -0.0822 C.2       1 <0>        -0.1381
     18 C12        -5.2735   -4.8438    1.0070 C.2       1 <0>        -0.2143
     19 C13        -4.6272   -4.3067    2.0574 C.2       1 <0>         0.0010
     20 O1         -3.3875   -3.9696    1.6658 O.3       1 <0>        -0.1725
     21 Cl1         3.9388   -0.7924   -0.0415 Cl        1 <0>        -0.0235
     22 H2         -0.9599    1.9009    0.0260 H         1 <0>         0.1376
     23 H3          1.1494    3.1667    0.0081 H         1 <0>         0.1396
     24 H4          3.3053    1.9833   -0.0200 H         1 <0>         0.1441
     25 H5         -0.9251   -0.5578    0.0083 H         1 <0>         0.1397
     26 H6         -1.5122   -2.6074    0.9714 H         1 <0>         0.3834
     27 H7         -4.5649   -5.1798   -1.0835 H         1 <0>         0.1617
     28 H8         -6.2864   -5.2183    0.9975 H         1 <0>         0.1609
     29 H9         -5.0348   -4.1728    3.0485 H         1 <0>         0.2145
@<TRIPOS>BOND
     1    1    6 ar
     2    1    2 ar
     3    1   22 1
     4    2    3 ar
     5    2   23 1
     6    3    4 ar
     7    3   24 1
     8    4    5 ar
     9    4   21 1
    10    5    6 ar
    11    5    7 1
    12    6   25 1
    13    7   11 1
    14    7    8 2
    15    8    9 1
    16    9   10 2
    17   10   15 1
    18   10   11 1
    19   11   12 1
    20   12   13 1
    21   12   26 1
    22   13   14 1
    23   13   15 1
    24   13   16 1
    25   16   20 1
    26   16   17 2
    27   17   18 1
    28   17   27 1
    29   18   19 2
    30   18   28 1
    31   19   20 1
    32   19   29 1
@<TRIPOS>MOLECULE
ZINC67410175
   54    55     0     0     0
SMALL
USER_CHARGES

@<TRIPOS>ATOM
      1 C1          0.3085    1.5921    0.1945 C.3       1 <0>        -0.1286
      2 C2          0.0199    0.0916    0.1157 C.3       1 <0>        -0.0852
      3 C3          0.8084   -0.6373    1.2056 C.3       1 <0>        -0.1503
      4 C4         -1.4768   -0.1513    0.3201 C.3       1 <0>        -0.1613
      5 C5          0.4332   -0.4291   -1.2367 C.2       1 <0>         0.5259
      6 O1          1.0585    0.2816   -1.9949 O.2       1 <0>        -0.5275
      7 N1          0.1080   -1.6845   -1.6037 N.am      1 <0>        -0.5964
      8 C6          0.4435   -2.1926   -2.8877 C.3       1 <0>         0.1152
      9 C7         -0.5717   -1.8259   -4.0191 C.3       1 <0>        -0.1504
     10 C8         -2.0045   -1.8923   -3.3966 C.3       1 <0>         0.1337
     11 N2         -2.1970   -2.9476   -2.4645 N.am      1 <0>        -0.6142
     12 C9         -2.0344   -2.6159   -1.0256 C.3       1 <0>         0.0714
     13 C10        -0.6114   -2.6003   -0.6815 C.3       1 <0>         0.0681
     14 C11        -2.5134   -4.1940   -2.8680 C.2       1 <0>         0.7082
     15 O2         -2.6403   -4.4356   -4.0528 O.2       1 <0>        -0.5797
     16 N3         -2.6891   -5.1726   -1.9581 N.am      1 <0>        -0.7450
     17 C12        -3.0331   -6.5274   -2.3966 C.3       1 <0>         0.1419
     18 C13        -3.1745   -7.4383   -1.1755 C.3       1 <0>        -0.0993
     19 H1         -2.2637   -7.3946   -0.5784 H         1 <0>         0.0792
     20 C14        -3.4216   -8.8810   -1.6342 C.3       1 <0>        -0.1125
     21 C15        -3.3807   -9.7931   -0.4062 C.3       1 <0>        -0.0923
     22 C16        -4.2558   -9.2380    0.6793 C.2       1 <0>        -0.1540
     23 C17        -4.6823   -8.0164    0.7135 C.2       1 <0>        -0.1590
     24 C18        -4.3662   -6.9837   -0.3300 C.3       1 <0>        -0.0848
     25 H2          1.3748    1.7651    0.0489 H         1 <0>         0.0648
     26 H3         -0.2532    2.1114   -0.5819 H         1 <0>         0.0607
     27 H4          0.0095    1.9687    1.1727 H         1 <0>         0.0638
     28 H5          0.3777   -0.4083    2.1804 H         1 <0>         0.0727
     29 H6          0.7611   -1.7122    1.0310 H         1 <0>         0.0655
     30 H7          1.8481   -0.3108    1.1819 H         1 <0>         0.0656
     31 H8         -2.0115    0.0798   -0.6011 H         1 <0>         0.0630
     32 H9         -1.6426   -1.1958    0.5842 H         1 <0>         0.0740
     33 H10        -1.8425    0.4889    1.1229 H         1 <0>         0.0723
     34 H11         1.4243   -1.8069   -3.1659 H         1 <0>         0.0716
     35 H12         0.5100   -3.2786   -2.8225 H         1 <0>         0.0681
     36 H13        -0.3722   -0.8185   -4.3842 H         1 <0>         0.0782
     37 H14        -0.4893   -2.5411   -4.8375 H         1 <0>         0.0800
     38 H15        -2.2063   -0.9466   -2.8936 H         1 <0>         0.0680
     39 H16        -2.7266   -2.0098   -4.2046 H         1 <0>         0.0733
     40 H17        -2.4673   -1.6352   -0.8282 H         1 <0>         0.1014
     41 H18        -2.5444   -3.3655   -0.4206 H         1 <0>         0.0874
     42 H19        -0.2026   -3.6062   -0.7770 H         1 <0>         0.0821
     43 H20        -0.4861   -2.2542    0.3445 H         1 <0>         0.1145
     44 H21        -2.5879   -4.9798   -1.0128 H         1 <0>         0.3933
     45 H22        -3.9757   -6.5040   -2.9435 H         1 <0>         0.0683
     46 H23        -2.2457   -6.9100   -3.0460 H         1 <0>         0.0685
     47 H24        -4.3994   -8.9516   -2.1107 H         1 <0>         0.0694
     48 H25        -2.6451   -9.1797   -2.3384 H         1 <0>         0.0709
     49 H26        -3.7337  -10.7867   -0.6822 H         1 <0>         0.0745
     50 H27        -2.3555   -9.8641   -0.0428 H         1 <0>         0.0743
     51 H28        -4.5483   -9.8991    1.4816 H         1 <0>         0.1028
     52 H29        -5.3017   -7.7194    1.5468 H         1 <0>         0.1030
     53 H30        -4.1255   -6.0374    0.1544 H         1 <0>         0.0680
     54 H31        -5.2349   -6.8470   -0.9739 H         1 <0>         0.0766
@<TRIPOS>BOND
     1    1    2 1
     2    1   25 1
     3    1   26 1
     4    1   27 1
     5    2    3 1
     6    2    4 1
     7    2    5 1
     8    3   28 1
     9    3   29 1
    10    3   30 1
    11    4   31 1
    12    4   32 1
    13    4   33 1
    14    5    6 2
    15    5    7 am
    16    7   13 1
    17    7    8 1
    18    8    9 1
    19    8   34 1
    20    8   35 1
    21    9   10 1
    22    9   36 1
    23    9   37 1
    24   10   11 1
    25   10   38 1
    26   10   39 1
    27   11   12 1
    28   11   14 am
    29   12   13 1
    30   12   40 1
    31   12   41 1
    32   13   42 1
    33   13   43 1
    34   14   15 2
    35   14   16 am
    36   16   17 1
    37   16   44 1
    38   17   18 1
    39   17   45 1
    40   17   46 1
    41   18   19 1
    42   18   24 1
    43   18   20 1
    44   20   21 1
    45   20   47 1
    46   20   48 1
    47   21   22 1
    48   21   49 1
    49   21   50 1
    50   22   23 2
    51   22   51 1
    52   23   24 1
    53   23   52 1
    54   24   53 1
    55   24   54 1
@<TRIPOS>MOLECULE
ZINC05139593
   46    49     0     0     0
SMALL
USER_CHARGES
9-(3,4-dimethylphenyl)-4-(p-tolylmethyl)-2,4,8,9-tetrazabicyclo[4.3.0]nona-2,7,10-trien-5-one
@<TRIPOS>ATOM
      1 C1          8.8018    3.6938    7.4581 C.3       1 <0>        -0.1196
      2 C2          8.7520    3.0690    6.0876 C.ar      1 <0>        -0.0725
      3 C3          8.3606    1.7512    5.9425 C.ar      1 <0>        -0.1243
      4 C4          8.3140    1.1784    4.6853 C.ar      1 <0>        -0.0982
      5 C5          8.6584    1.9236    3.5731 C.ar      1 <0>        -0.1305
      6 C6          9.0549    3.2399    3.7187 C.ar      1 <0>        -0.0849
      7 C7          9.0973    3.8139    4.9755 C.ar      1 <0>        -0.1234
      8 C8          8.6076    1.2992    2.2025 C.3       1 <0>         0.1385
      9 N1          7.2775    1.5015    1.6227 N.am      1 <0>        -0.5385
     10 C9          6.3025    0.5811    1.8310 C.2       1 <0>         0.4190
     11 N2          5.1009    0.6984    1.3465 N.2       1 <0>        -0.5307
     12 C10         4.7368    1.7539    0.6024 C.2       1 <0>         0.3396
     13 C11         5.6807    2.7565    0.3280 C.2       1 <0>        -0.3381
     14 C12         7.0262    2.6062    0.8817 C.2       1 <0>         0.5780
     15 O1          7.8885    3.4436    0.6832 O.2       1 <0>        -0.5105
     16 C13         5.0414    3.7262   -0.4671 C.2       1 <0>         0.1344
     17 N3          3.8092    3.3464   -0.6677 N.2       1 <0>        -0.2652
     18 N4          3.5851    2.1242   -0.0214 N.pl3     1 <0>        -0.3015
     19 C14         2.3809    1.4089   -0.0132 C.ar      1 <0>         0.1404
     20 C15         2.3963    0.0201   -0.0208 C.ar      1 <0>        -0.1087
     21 C16         1.2074   -0.6822   -0.0132 C.ar      1 <0>        -0.0986
     22 C17         0.0021   -0.0041    0.0020 C.ar      1 <0>        -0.0819
     23 C18        -0.0167    1.3784    0.0096 C.ar      1 <0>        -0.0717
     24 C19         1.1692    2.0867    0.0021 C.ar      1 <0>        -0.1023
     25 C20        -1.3323    2.1133    0.0199 C.3       1 <0>        -0.1174
     26 C21        -1.2936   -0.7737    0.0098 C.3       1 <0>        -0.1184
     27 H1          9.7910    3.5429    7.8904 H         1 <0>         0.0739
     28 H2          8.5992    4.7618    7.3782 H         1 <0>         0.0681
     29 H3          8.0512    3.2284    8.0970 H         1 <0>         0.0681
     30 H4          8.0908    1.1692    6.8114 H         1 <0>         0.1253
     31 H5          8.0082    0.1489    4.5719 H         1 <0>         0.1247
     32 H6          9.3282    3.8207    2.8502 H         1 <0>         0.1304
     33 H7          9.4028    4.8436    5.0888 H         1 <0>         0.1247
     34 H8          8.8107    0.2312    2.2820 H         1 <0>         0.1082
     35 H9          9.3574    1.7650    1.5630 H         1 <0>         0.1119
     36 H10         6.5348   -0.2891    2.4270 H         1 <0>         0.2125
     37 H11         5.4935    4.6309   -0.8460 H         1 <0>         0.2034
     38 H12         3.3372   -0.5099   -0.0330 H         1 <0>         0.1354
     39 H13         1.2188   -1.7621   -0.0187 H         1 <0>         0.1342
     40 H14         1.1539    3.1666    0.0077 H         1 <0>         0.1336
     41 H15        -1.6446    2.2849    1.0500 H         1 <0>         0.0742
     42 H16        -1.2179    3.0702   -0.4893 H         1 <0>         0.0695
     43 H17        -2.0860    1.5163   -0.4937 H         1 <0>         0.0736
     44 H18        -1.6154   -0.9537   -1.0159 H         1 <0>         0.0742
     45 H19        -1.1468   -1.7271    0.5172 H         1 <0>         0.0695
     46 H20        -2.0557   -0.1968    0.5338 H         1 <0>         0.0715
@<TRIPOS>BOND
     1    1    2 1
     2    1   27 1
     3    1   28 1
     4    1   29 1
     5    2    7 ar
     6    2    3 ar
     7    3    4 ar
     8    3   30 1
     9    4    5 ar
    10    4   31 1
    11    5    6 ar
    12    5    8 1
    13    6    7 ar
    14    6   32 1
    15    7   33 1
    16    8    9 1
    17    8   34 1
    18    8   35 1
    19    9   14 am
    20    9   10 1
    21   10   11 2
    22   10   36 1
    23   11   12 1
    24   12   18 1
    25   12   13 2
    26   13   14 1
    27   13   16 1
    28   14   15 2
    29   16   17 2
    30   16   37 1
    31   17   18 1
    32   18   19 1
    33   19   24 ar
    34   19   20 ar
    35   20   21 ar
    36   20   38 1
    37   21   22 ar
    38   21   39 1
    39   22   23 ar
    40   22   26 1
    41   23   24 ar
    42   23   25 1
    43   24   40 1
    44   25   41 1
    45   25   42 1
    46   25   43 1
    47   26   44 1
    48   26   45 1
    49   26   46 1
@<TRIPOS>MOLECULE
ZINC13702874
   36    38     0     0     0
SMALL
USER_CHARGES
(NZ)-N-(6-chloro-3-prop-2-ynyl-1,3-benzothiazol-2-ylidene)-1-ethyl-pyrazole-3-carboxamide
@<TRIPOS>ATOM
      1 C1          6.1132    7.0428    1.1633 C.3       1 <0>        -0.1680
      2 C2          5.3174    7.6238   -0.0072 C.3       1 <0>         0.1164
      3 N1          3.9608    7.0710    0.0024 N.pl3     1 <0>        -0.2828
      4 C3          2.8277    7.8050    0.0177 C.2       1 <0>        -0.0216
      5 C4          1.7884    6.9371    0.0232 C.2       1 <0>        -0.1825
      6 C5          2.3715    5.6489    0.0102 C.2       1 <0>         0.0005
      7 N2          3.6778    5.8178    0.0040 N.2       1 <0>        -0.2286
      8 C6          1.6508    4.3560    0.0102 C.2       1 <0>         0.5833
      9 O1          0.4321    4.3376    0.0222 O.2       1 <0>        -0.5157
     10 N3          2.3367    3.2082   -0.0030 N.2       1 <0>        -0.5737
     11 C7          1.6898    2.0478   -0.0031 C.2       1 <0>         0.4265
     12 N4          2.2111    0.7914   -0.0148 N.pl3     1 <0>        -0.4988
     13 C8          1.3712   -0.3074   -0.0127 C.ar      1 <0>         0.1311
     14 C9          1.7174   -1.6678   -0.0245 C.ar      1 <0>        -0.1000
     15 C10         0.7462   -2.6406   -0.0206 C.ar      1 <0>        -0.0691
     16 C11        -0.6000   -2.3114   -0.0060 C.ar      1 <0>        -0.0406
     17 C12        -0.9693   -0.9769    0.0054 C.ar      1 <0>        -0.0256
     18 C13         0.0021   -0.0041    0.0020 C.ar      1 <0>        -0.1790
     19 S1         -0.0220    1.7708    0.0118 S.3       1 <0>         0.1614
     20 Cl1        -1.8089   -3.5573   -0.0025 Cl        1 <0>        -0.0464
     21 C14         3.6637    0.6020   -0.0302 C.3       1 <0>         0.2145
     22 C15         4.1366    0.5463   -1.4231 C.1       1 <0>        -0.2234
     23 C16         4.5137    0.5020   -2.5339 C.1       1 <0>        -0.1490
     24 H1          7.1226    7.4542    1.1561 H         1 <0>         0.0802
     25 H2          5.6218    7.3022    2.1010 H         1 <0>         0.0628
     26 H3          6.1621    5.9582    1.0666 H         1 <0>         0.0745
     27 H4          5.8088    7.3644   -0.9450 H         1 <0>         0.0942
     28 H5          5.2685    8.7084    0.0894 H         1 <0>         0.1043
     29 H6          2.7625    8.8830    0.0241 H         1 <0>         0.1826
     30 H7          0.7357    7.1780    0.0350 H         1 <0>         0.1624
     31 H8          2.7589   -1.9534   -0.0363 H         1 <0>         0.1425
     32 H9          1.0376   -3.6805   -0.0295 H         1 <0>         0.1493
     33 H10        -2.0137   -0.7021    0.0165 H         1 <0>         0.1513
     34 H11         4.1441    1.4347    0.4836 H         1 <0>         0.1295
     35 H12         3.9140   -0.3303    0.4760 H         1 <0>         0.1146
     36 H13         4.8510    0.4623   -3.5275 H         1 <0>         0.2225
@<TRIPOS>BOND
     1    1    2 1
     2    1   24 1
     3    1   25 1
     4    1   26 1
     5    2    3 1
     6    2   27 1
     7    2   28 1
     8    3    7 1
     9    3    4 1
    10    4    5 2
    11    4   29 1
    12    5    6 1
    13    5   30 1
    14    6    7 2
    15    6    8 1
    16    8    9 2
    17    8   10 1
    18   10   11 2
    19   11   19 1
    20   11   12 1
    21   12   13 1
    22   12   21 1
    23   13   18 ar
    24   13   14 ar
    25   14   15 ar
    26   14   31 1
    27   15   16 ar
    28   15   32 1
    29   16   17 ar
    30   16   20 1
    31   17   18 ar
    32   17   33 1
    33   18   19 1
    34   21   22 1
    35   21   34 1
    36   21   35 1
    37   22   23 3
    38   23   36 1
@<TRIPOS>MOLECULE
ZINC35290220
   53    56     0     0     0
SMALL
USER_CHARGES

@<TRIPOS>ATOM
      1 C1          0.0084    1.5278   -0.0058 C.3       1 <0>        -0.1430
      2 C2          0.0157   -0.0021   -0.0069 C.3       1 <0>         0.1447
      3 H1         -1.0055   -0.3724    0.0836 H         1 <0>         0.0753
      4 C3          0.6329   -0.5118   -1.3131 C.3       1 <0>        -0.1329
      5 C4          0.7649   -2.0352   -1.2499 C.3       1 <0>        -0.1221
      6 C5          1.6918   -2.4211   -0.0949 C.3       1 <0>        -0.1366
      7 C6          1.0866   -1.9331    1.2251 C.3       1 <0>         0.1013
      8 N1          0.8190   -0.4917    1.1216 N.am      1 <0>        -0.6024
      9 C7          1.3040    0.3650    2.0420 C.2       1 <0>         0.5380
     10 O1          0.9935    1.5367    2.0030 O.2       1 <0>        -0.5132
     11 C8          2.2323   -0.1329    3.1198 C.3       1 <0>        -0.1605
     12 S1          2.7072    1.2489    4.1947 S.3       1 <0>         0.1098
     13 C9          3.7775    0.5140    5.3859 C.ar      1 <0>         0.2140
     14 N2          4.3096    1.2679    6.3455 N.ar      1 <0>        -0.4425
     15 C10         5.1065    0.7064    7.2271 C.ar      1 <0>         0.1734
     16 C11         5.3718   -0.6581    7.1334 C.ar      1 <0>         0.0038
     17 N3          4.8220   -1.3603    6.1689 N.ar      1 <0>        -0.1732
     18 N4          4.0391   -0.7859    5.3187 N.ar      1 <0>        -0.3009
     19 C12         6.3188   -1.0171    8.2783 C.3       1 <0>        -0.0226
     20 H2          6.3586   -2.0697    8.5586 H         1 <0>         0.1246
     21 C13         7.6767   -0.3579    7.8777 C.3       1 <0>        -0.1213
     22 C14         7.3984    1.1617    7.9691 C.3       1 <0>        -0.1156
     23 C15         5.8776    1.2408    8.4329 C.3       1 <0>        -0.0075
     24 C16         5.8098   -0.0146    9.3789 C.3       1 <0>        -0.0549
     25 C17         6.7769    0.0935   10.5597 C.3       1 <0>        -0.1359
     26 C18         4.3821   -0.3247    9.8332 C.3       1 <0>        -0.1390
     27 C19         5.3978    2.5763    9.0050 C.3       1 <0>        -0.1211
     28 H3          1.0343    1.8960    0.0050 H         1 <0>         0.0651
     29 H4         -0.4979    1.8895   -0.9007 H         1 <0>         0.0487
     30 H5         -0.5162    1.8880    0.8791 H         1 <0>         0.0803
     31 H6         -0.0087   -0.2366   -2.1503 H         1 <0>         0.0780
     32 H7          1.6186   -0.0664   -1.4478 H         1 <0>         0.0681
     33 H8         -0.2180   -2.4786   -1.0905 H         1 <0>         0.0660
     34 H9          1.1811   -2.4028   -2.1879 H         1 <0>         0.0685
     35 H10         1.8040   -3.5049   -0.0650 H         1 <0>         0.0794
     36 H11         2.6675   -1.9578   -0.2411 H         1 <0>         0.0685
     37 H12         0.1537   -2.4629    1.4173 H         1 <0>         0.0759
     38 H13         1.7881   -2.1171    2.0388 H         1 <0>         0.0881
     39 H14         1.7262   -0.8960    3.7111 H         1 <0>         0.1243
     40 H15         3.1243   -0.5604    2.6620 H         1 <0>         0.1245
     41 H16         8.4618   -0.6452    8.5771 H         1 <0>         0.0921
     42 H17         7.9504   -0.6355    6.8598 H         1 <0>         0.0718
     43 H18         8.0455    1.6244    8.7143 H         1 <0>         0.0928
     44 H19         7.5355    1.6343    6.9965 H         1 <0>         0.0717
     45 H20         7.7528    0.4210   10.2012 H         1 <0>         0.0697
     46 H21         6.3926    0.8167   11.2790 H         1 <0>         0.0667
     47 H22         6.8742   -0.8801   11.0399 H         1 <0>         0.0675
     48 H23         4.3494   -1.3210   10.2740 H         1 <0>         0.0686
     49 H24         4.0688    0.4109   10.5741 H         1 <0>         0.0694
     50 H25         3.7111   -0.2847    8.9752 H         1 <0>         0.0449
     51 H26         4.3560    2.4864    9.3128 H         1 <0>         0.0661
     52 H27         6.0095    2.8432    9.8667 H         1 <0>         0.0732
     53 H28         5.4859    3.3507    8.2430 H         1 <0>         0.0707
@<TRIPOS>BOND
     1    1    2 1
     2    1   28 1
     3    1   29 1
     4    1   30 1
     5    2    3 1
     6    2    8 1
     7    2    4 1
     8    4    5 1
     9    4   31 1
    10    4   32 1
    11    5    6 1
    12    5   33 1
    13    5   34 1
    14    6    7 1
    15    6   35 1
    16    6   36 1
    17    7    8 1
    18    7   37 1
    19    7   38 1
    20    8    9 am
    21    9   10 2
    22    9   11 1
    23   11   12 1
    24   11   39 1
    25   11   40 1
    26   12   13 1
    27   13   18 ar
    28   13   14 ar
    29   14   15 ar
    30   15   23 1
    31   15   16 ar
    32   16   17 ar
    33   16   19 1
    34   17   18 ar
    35   19   20 1
    36   19   24 1
    37   19   21 1
    38   21   22 1
    39   21   41 1
    40   21   42 1
    41   22   23 1
    42   22   43 1
    43   22   44 1
    44   23   24 1
    45   23   27 1
    46   24   25 1
    47   24   26 1
    48   25   45 1
    49   25   46 1
    50   25   47 1
    51   26   48 1
    52   26   49 1
    53   26   50 1
    54   27   51 1
    55   27   52 1
    56   27   53 1
@<TRIPOS>MOLECULE
ZINC48759929
   36    37     0     0     0
SMALL
USER_CHARGES

@<TRIPOS>ATOM
      1 C1         -0.4219    1.4279    0.5181 C.3       1 <0>        -0.1514
      2 C2         -0.2468   -0.0861    0.3835 C.3       1 <0>        -0.1327
      3 C3          0.7602   -0.5775    1.4254 C.3       1 <0>         0.1444
      4 H1          0.4414   -0.2653    2.4199 H         1 <0>         0.0778
      5 C4          0.8556   -2.1065    1.3701 C.3       1 <0>         0.0529
      6 O1          1.4486   -2.4965    0.1291 O.3       1 <0>        -0.3711
      7 C5          2.7882   -2.0310   -0.0514 C.3       1 <0>         0.0726
      8 H2          3.4110   -2.3872    0.7691 H         1 <0>         0.0818
      9 C6          2.7917   -0.4981   -0.0689 C.3       1 <0>         0.1208
     10 N1          2.0893   -0.0179    1.1326 N.pl3     1 <0>        -0.6735
     11 C7          2.6671    0.9394    1.9704 C.ar      1 <0>         0.2629
     12 C8          2.4442    2.2912    1.7401 C.ar      1 <0>        -0.1265
     13 C9          3.0166    3.2350    2.5697 C.ar      1 <0>        -0.0333
     14 C10         3.8119    2.8356    3.6294 C.ar      1 <0>        -0.1030
     15 C11         4.0359    1.4902    3.8609 C.ar      1 <0>        -0.0238
     16 C12         3.4606    0.5413    3.0384 C.ar      1 <0>        -0.0602
     17 N2          3.6954   -0.8981    3.2906 N.pl3     1 <0>         0.0392
     18 O2          4.4020   -1.2434    4.2088 O.2       1 <0>        -0.1714
     19 O3          3.1806   -1.7284    2.5785 O.3       1 <0>        -0.1349
     20 Br1         4.5944    4.1312    4.7628 Br        1 <0>        -0.0130
     21 C13         3.3386   -2.5595   -1.3775 C.3       1 <0>        -0.1469
     22 H3          0.4983    1.9283    0.2164 H         1 <0>         0.0544
     23 H4         -1.2409    1.7572   -0.1214 H         1 <0>         0.0553
     24 H5         -0.6478    1.6769    1.5549 H         1 <0>         0.0497
     25 H6         -1.2058   -0.5785    0.5446 H         1 <0>         0.0722
     26 H7          0.1196   -0.3221   -0.6155 H         1 <0>         0.0734
     27 H8          1.4714   -2.4630    2.1958 H         1 <0>         0.0761
     28 H9         -0.1429   -2.5367    1.4475 H         1 <0>         0.0955
     29 H10         3.8188   -0.1333   -0.0637 H         1 <0>         0.0703
     30 H11         2.2789   -0.1400   -0.9616 H         1 <0>         0.0660
     31 H12         1.8242    2.6036    0.9128 H         1 <0>         0.1604
     32 H13         2.8437    4.2860    2.3912 H         1 <0>         0.1538
     33 H14         4.6573    1.1814    4.6885 H         1 <0>         0.1625
     34 H15         2.7163   -2.2015   -2.1977 H         1 <0>         0.0626
     35 H16         4.3599   -2.2042   -1.5144 H         1 <0>         0.0687
     36 H17         3.3317   -3.6494   -1.3652 H         1 <0>         0.0682
@<TRIPOS>BOND
     1    1    2 1
     2    1   22 1
     3    1   23 1
     4    1   24 1
     5    2    3 1
     6    2   25 1
     7    2   26 1
     8    3    4 1
     9    3   10 1
    10    3    5 1
    11    5    6 1
    12    5   27 1
    13    5   28 1
    14    6    7 1
    15    7    8 1
    16    7    9 1
    17    7   21 1
    18    9   10 1
    19    9   29 1
    20    9   30 1
    21   10   11 1
    22   11   16 ar
    23   11   12 ar
    24   12   13 ar
    25   12   31 1
    26   13   14 ar
    27   13   32 1
    28   14   15 ar
    29   14   20 1
    30   15   16 ar
    31   15   33 1
    32   16   17 1
    33   17   18 2
    34   17   19 1
    35   21   34 1
    36   21   35 1
    37   21   36 1
@<TRIPOS>MOLECULE
ZINC66824978
   39    41     0     0     0
SMALL
USER_CHARGES

@<TRIPOS>ATOM
      1 C1         -0.0187    1.5258    0.0104 C.3       1 <0>        -0.1338
      2 C2          0.0021   -0.0041    0.0020 C.3       1 <0>        -0.0003
      3 C3          0.7421   -0.5109    1.2415 C.3       1 <0>        -0.1413
      4 C4         -1.4333   -0.5336    0.0129 C.3       1 <0>        -0.1413
      5 C5          0.7074   -0.4901   -1.2379 C.2       1 <0>         0.0689
      6 C6          0.8445   -1.8692   -1.4670 C.2       1 <0>        -0.0593
      7 C7          1.4887   -2.2768   -2.6005 C.2       1 <0>        -0.1920
      8 C8          1.9780   -1.2816   -3.4739 C.2       1 <0>         0.4780
      9 O1          2.5605   -1.5938   -4.5001 O.2       1 <0>        -0.5349
     10 N1          1.7951    0.0159   -3.1631 N.am      1 <0>        -0.3404
     11 N2          1.1815    0.3726   -2.0932 N.2       1 <0>        -0.2040
     12 C9          2.3041    1.0464   -4.0716 C.3       1 <0>         0.1993
     13 C10         3.7536    1.3182   -3.7612 C.2       1 <0>         0.0310
     14 C11         4.8123    0.7551   -4.3840 C.2       1 <0>        -0.0359
     15 N3          5.9411    1.2683   -3.8060 N.pl3     1 <0>        -0.3555
     16 C12         7.2717    1.0595   -4.0330 C.2       1 <0>         0.0772
     17 C13         8.2040    1.7092   -3.3035 C.2       1 <0>        -0.0528
     18 C14         7.8153    2.6114   -2.2983 C.2       1 <0>        -0.0880
     19 C15         6.4926    2.8287   -2.0625 C.2       1 <0>         0.0166
     20 C16         5.5315    2.1422   -2.8332 C.2       1 <0>         0.2175
     21 N4          4.2058    2.1598   -2.8289 N.2       1 <0>        -0.4410
     22 Cl1         5.9935    3.9394   -0.8252 Cl        1 <0>        -0.0067
     23 Cl2         9.8898    1.4285   -3.6082 Cl        1 <0>        -0.0177
     24 H1          1.0039    1.9031    0.0027 H         1 <0>         0.0633
     25 H2         -0.5459    1.8868   -0.8726 H         1 <0>         0.0608
     26 H3         -0.5289    1.8773    0.9072 H         1 <0>         0.0584
     27 H4          0.2319   -0.1594    2.1383 H         1 <0>         0.0691
     28 H5          0.7568   -1.6008    1.2356 H         1 <0>         0.0583
     29 H6          1.7647   -0.1336    1.2338 H         1 <0>         0.0585
     30 H7         -1.9605   -0.1726   -0.8702 H         1 <0>         0.0592
     31 H8         -1.4185   -1.6235    0.0069 H         1 <0>         0.0587
     32 H9         -1.9435   -0.1821    0.9097 H         1 <0>         0.0688
     33 H10         0.4509   -2.5889   -0.7645 H         1 <0>         0.1506
     34 H11         1.6196   -3.3259   -2.8210 H         1 <0>         0.1627
     35 H12         2.2117    0.7008   -5.1012 H         1 <0>         0.1224
     36 H13         1.7270    1.9620   -3.9424 H         1 <0>         0.1219
     37 H14         4.7745    0.0347   -5.1878 H         1 <0>         0.1980
     38 H15         7.5810    0.3680   -4.8028 H         1 <0>         0.1811
     39 H16         8.5627    3.1294   -1.7156 H         1 <0>         0.1648
@<TRIPOS>BOND
     1    1    2 1
     2    1   24 1
     3    1   25 1
     4    1   26 1
     5    2    3 1
     6    2    4 1
     7    2    5 1
     8    3   27 1
     9    3   28 1
    10    3   29 1
    11    4   30 1
    12    4   31 1
    13    4   32 1
    14    5   11 2
    15    5    6 1
    16    6    7 2
    17    6   33 1
    18    7    8 1
    19    7   34 1
    20    8    9 2
    21    8   10 am
    22   10   11 1
    23   10   12 1
    24   12   13 1
    25   12   35 1
    26   12   36 1
    27   13   21 1
    28   13   14 2
    29   14   15 1
    30   14   37 1
    31   15   20 1
    32   15   16 1
    33   16   17 2
    34   16   38 1
    35   17   18 1
    36   17   23 1
    37   18   19 2
    38   18   39 1
    39   19   20 1
    40   19   22 1
    41   20   21 2
@<TRIPOS>MOLECULE
ZINC14535580
   71    75     0     0     0
SMALL
USER_CHARGES
8-(cyclohexylmethyl)-4-phenethyl-2-(3-pyridylmethyl)-2,4,8-triazaspiro[4.5]decane-1,3-dione
@<TRIPOS>ATOM
      1 C1          7.6278   -1.7285   -1.6376 C.ar      1 <0>        -0.1122
      2 C2          6.6187   -2.5486   -1.1687 C.ar      1 <0>        -0.1086
      3 C3          5.3012   -2.1378   -1.2479 C.ar      1 <0>        -0.1073
      4 C4          4.9928   -0.9070   -1.7965 C.ar      1 <0>        -0.0958
      5 C5          6.0015   -0.0893   -2.2706 C.ar      1 <0>        -0.1283
      6 C6          7.3194   -0.4977   -2.1862 C.ar      1 <0>        -0.1153
      7 C7          3.5564   -0.4594   -1.8833 C.3       1 <0>        -0.1055
      8 C8          3.1813    0.3007   -0.6095 C.3       1 <0>         0.1387
      9 N1          1.8255    0.8393   -0.7436 N.am      1 <0>        -0.6242
     10 C9          0.6798    0.1341   -0.8077 C.2       1 <0>         0.7030
     11 O1          0.6295   -1.0794   -0.7608 O.2       1 <0>        -0.5102
     12 N2         -0.3973    0.9197   -0.9294 N.am      1 <0>        -0.5677
     13 C10        -0.0591    2.2257   -0.9570 C.2       1 <0>         0.5347
     14 O2         -0.8054    3.1752   -1.0629 O.2       1 <0>        -0.4397
     15 C11         1.4465    2.2546   -0.8348 C.3       1 <0>         0.1108
     16 C12         1.8658    3.0035    0.4264 C.3       1 <0>        -0.1394
     17 C13         3.3945    3.0402    0.5092 C.3       1 <0>        -0.0281
     18 C14         3.5925    2.9375   -1.9055 C.3       1 <0>        -0.0197
     19 C15         2.0704    2.8974   -2.0696 C.3       1 <0>        -0.1409
     20 C16         5.3865    3.8796   -0.5808 C.3       1 <0>        -0.0057
     21 C17         5.7100    4.5808    0.7400 C.3       1 <0>        -0.1156
     22 C18         5.0583    5.9650    0.7555 C.3       1 <0>        -0.1310
     23 C19         5.3818    6.6662    2.0764 C.3       1 <0>        -0.1196
     24 C20         6.8981    6.8148    2.2169 C.3       1 <0>        -0.1267
     25 C21         7.5498    5.4306    2.2013 C.3       1 <0>        -0.1221
     26 C22         7.2263    4.7294    0.8805 C.3       1 <0>        -0.1109
     27 C23        -1.7724    0.4232   -1.0219 C.3       1 <0>         0.1649
     28 C24        -2.1270    0.1927   -2.4684 C.ar      1 <0>        -0.1836
     29 C25        -1.8918   -1.0386   -3.0614 C.ar      1 <0>        -0.0464
     30 C26        -2.2340   -1.2050   -4.3944 C.ar      1 <0>        -0.1739
     31 C27        -2.7942   -0.1457   -5.0833 C.ar      1 <0>         0.1146
     32 N3         -3.0035    1.0115   -4.4869 N.ar      1 <0>        -0.4837
     33 C28        -2.6958    1.2039   -3.2190 C.ar      1 <0>         0.1230
     34 H1          8.6572   -2.0491   -1.5751 H         1 <0>         0.1273
     35 H2          6.8597   -3.5102   -0.7402 H         1 <0>         0.1285
     36 H3          4.5128   -2.7786   -0.8816 H         1 <0>         0.1267
     37 H4          5.7601    0.8704   -2.7031 H         1 <0>         0.1126
     38 H5          8.1078    0.1433   -2.5522 H         1 <0>         0.1251
     39 H6          2.9101   -1.3306   -1.9902 H         1 <0>         0.0975
     40 H7          3.4311    0.1942   -2.7466 H         1 <0>         0.0765
     41 H8          3.8839    1.1196   -0.4548 H         1 <0>         0.0865
     42 H9          3.2202   -0.3774    0.2430 H         1 <0>         0.0987
     43 H10         1.4788    4.0219    0.3903 H         1 <0>         0.1176
     44 H11         1.4662    2.4928    1.3025 H         1 <0>         0.1257
     45 H12         3.7794    2.0226    0.5753 H         1 <0>         0.1451
     46 H13         3.6972    3.6014    1.3932 H         1 <0>         0.1475
     47 H14         3.9759    1.9205   -1.8221 H         1 <0>         0.1410
     48 H15         4.0388    3.4240   -2.7728 H         1 <0>         0.1442
     49 H16         1.8149    2.3120   -2.9528 H         1 <0>         0.1236
     50 H17         1.6895    3.9124   -2.1831 H         1 <0>         0.1182
     51 H18         5.8823    2.9093   -0.6081 H         1 <0>         0.1336
     52 H19         5.7380    4.4907   -1.4122 H         1 <0>         0.1342
     53 H20         5.3245    3.9884    1.5698 H         1 <0>         0.0965
     54 H21         5.4438    6.5574   -0.0743 H         1 <0>         0.0805
     55 H22         3.9781    5.8592    0.6554 H         1 <0>         0.0558
     56 H23         4.9964    6.0738    2.9062 H         1 <0>         0.0668
     57 H24         4.9176    7.6523    2.0874 H         1 <0>         0.0735
     58 H25         7.1286    7.3143    3.1578 H         1 <0>         0.0713
     59 H26         7.2836    7.4072    1.3871 H         1 <0>         0.0667
     60 H27         7.1643    4.8382    3.0311 H         1 <0>         0.0665
     61 H28         8.6300    5.5364    2.3014 H         1 <0>         0.0743
     62 H29         7.6905    3.7433    0.8694 H         1 <0>         0.0742
     63 H30         7.6117    5.3218    0.0507 H         1 <0>         0.0747
     64 H31        -1.8578   -0.5147   -0.4731 H         1 <0>         0.1139
     65 H32        -2.4538    1.1582   -0.5935 H         1 <0>         0.1130
     66 H33        -1.4529   -1.8487   -2.4980 H         1 <0>         0.1405
     67 H34        -2.0653   -2.1505   -4.8883 H         1 <0>         0.1412
     68 H35        -3.0632   -0.2671   -6.1222 H         1 <0>         0.1617
     69 H36        -2.8867    2.1642   -2.7632 H         1 <0>         0.1571
     70 N4          3.9223    3.7189   -0.6942 N.4       1 <0>        -0.3950
     71 H37         3.4899    4.6472   -0.7692 H         1 <0>         0.4290
@<TRIPOS>BOND
     1    1    6 ar
     2    1    2 ar
     3    1   34 1
     4    2    3 ar
     5    2   35 1
     6    3    4 ar
     7    3   36 1
     8    4    5 ar
     9    4    7 1
    10    5    6 ar
    11    5   37 1
    12    6   38 1
    13    7    8 1
    14    7   39 1
    15    7   40 1
    16    8    9 1
    17    8   41 1
    18    8   42 1
    19    9   15 1
    20    9   10 am
    21   10   11 2
    22   10   12 am
    23   12   13 am
    24   12   27 1
    25   13   14 2
    26   13   15 1
    27   15   19 1
    28   15   16 1
    29   16   17 1
    30   16   43 1
    31   16   44 1
    32   17   45 1
    33   17   46 1
    34   17   70 1
    35   18   19 1
    36   18   47 1
    37   18   48 1
    38   18   70 1
    39   19   49 1
    40   19   50 1
    41   20   21 1
    42   20   51 1
    43   20   52 1
    44   20   70 1
    45   21   26 1
    46   21   22 1
    47   21   53 1
    48   22   23 1
    49   22   54 1
    50   22   55 1
    51   23   24 1
    52   23   56 1
    53   23   57 1
    54   24   25 1
    55   24   58 1
    56   24   59 1
    57   25   26 1
    58   25   60 1
    59   25   61 1
    60   26   62 1
    61   26   63 1
    62   27   28 1
    63   27   64 1
    64   27   65 1
    65   28   33 ar
    66   28   29 ar
    67   29   30 ar
    68   29   66 1
    69   30   31 ar
    70   30   67 1
    71   31   32 ar
    72   31   68 1
    73   32   33 ar
    74   33   69 1
    75   70   71 1
@<TRIPOS>MOLECULE
ZINC34762428
   61    64     0     0     0
SMALL
USER_CHARGES

@<TRIPOS>ATOM
      1 C1          0.0444    1.4077    0.0926 C.3       1 <0>        -0.1528
      2 C2          0.0449   -0.1198    0.0056 C.3       1 <0>        -0.0789
      3 C3         -1.3664   -0.6310    0.1397 C.2       1 <0>        -0.0989
      4 C4         -1.9096   -0.8120    1.3518 C.2       1 <0>        -0.1153
      5 S1         -3.5487   -1.4121    0.9886 S.3       1 <0>         0.1263
      6 C5         -3.4597   -1.4036   -0.7825 C.ar      1 <0>         0.1340
      7 C6         -2.1562   -0.9279   -1.0436 C.ar      1 <0>        -0.1831
      8 C7         -1.8095   -0.8146   -2.4185 C.ar      1 <0>         0.4750
      9 N1         -2.6984   -1.1454   -3.3399 N.ar      1 <0>        -0.5162
     10 C8         -3.9118   -1.5827   -3.0248 C.ar      1 <0>         0.3129
     11 N2         -4.2873   -1.7178   -1.7597 N.ar      1 <0>        -0.4865
     12 S2         -5.0401   -2.0037   -4.3110 S.3       1 <0>         0.1116
     13 C9         -6.5325   -2.5370   -3.4285 C.3       1 <0>        -0.1511
     14 C10        -7.5920   -2.9304   -4.4254 C.2       1 <0>         0.5486
     15 O1         -7.3629   -2.8581   -5.6142 O.2       1 <0>        -0.5230
     16 N3         -8.7942   -3.3626   -3.9959 N.am      1 <0>        -0.6121
     17 C11        -9.2060   -3.4924   -2.5905 C.3       1 <0>         0.0939
     18 C12       -10.6467   -4.0457   -2.5845 C.3       1 <0>        -0.1332
     19 C13       -10.7619   -4.7300   -3.9722 C.3       1 <0>        -0.1349
     20 C14        -9.9162   -3.7774   -4.8576 C.3       1 <0>         0.1046
     21 N4         -0.5557   -0.3626   -2.7879 N.pl3     1 <0>        -0.6585
     22 C15         0.5449   -1.3060   -3.0386 C.3       1 <0>         0.1191
     23 C16         1.1750   -0.9681   -4.3938 C.3       1 <0>        -0.0228
     24 N5          1.5731    0.4452   -4.4086 N.4       1 <0>        -0.3811
     25 C17         0.3845    1.3007   -4.3013 C.3       1 <0>        -0.0289
     26 C18        -0.2864    1.0748   -2.9470 C.3       1 <0>         0.1139
     27 C19         2.2754    0.7411   -5.6645 C.3       1 <0>        -0.0105
     28 C20         2.7997    2.1781   -5.6292 C.3       1 <0>        -0.1887
     29 C21        -1.2838   -0.5665    2.7006 C.3       1 <0>        -0.0783
     30 H1          1.0417    1.7849   -0.1337 H         1 <0>         0.0600
     31 H2         -0.6687    1.8123   -0.6258 H         1 <0>         0.0545
     32 H3         -0.2403    1.7143    1.0991 H         1 <0>         0.0636
     33 H4          0.4533   -0.4288   -0.9565 H         1 <0>         0.0801
     34 H5          0.6575   -0.5292    0.8088 H         1 <0>         0.0773
     35 H6         -6.2943   -3.3916   -2.7952 H         1 <0>         0.1264
     36 H7         -6.9012   -1.7184   -2.8105 H         1 <0>         0.1261
     37 H8         -8.5414   -4.1833   -2.0718 H         1 <0>         0.0733
     38 H9         -9.1817   -2.5166   -2.1055 H         1 <0>         0.0733
     39 H10       -10.7769   -4.7735   -1.7836 H         1 <0>         0.0877
     40 H11       -11.3704   -3.2359   -2.4926 H         1 <0>         0.0812
     41 H12       -10.3334   -5.7320   -3.9505 H         1 <0>         0.0793
     42 H13       -11.7980   -4.7571   -4.3097 H         1 <0>         0.0905
     43 H14       -10.5055   -2.9106   -5.1566 H         1 <0>         0.0747
     44 H15        -9.5449   -4.3060   -5.7356 H         1 <0>         0.0835
     45 H16         1.2942   -1.2120   -2.2526 H         1 <0>         0.0919
     46 H17         0.1568   -2.3244   -3.0589 H         1 <0>         0.1172
     47 H18         2.0527   -1.5946   -4.5529 H         1 <0>         0.1406
     48 H19         0.4500   -1.1498   -5.1872 H         1 <0>         0.1362
     49 H20         0.6796    2.3460   -4.3922 H         1 <0>         0.1418
     50 H21        -0.3166    1.0503   -5.0975 H         1 <0>         0.1353
     51 H22        -1.2237    1.6297   -2.9068 H         1 <0>         0.1153
     52 H23         0.3776    1.4134   -2.1516 H         1 <0>         0.0966
     53 H24         3.1115    0.0521   -5.7842 H         1 <0>         0.1314
     54 H25         1.5869    0.6260   -6.5016 H         1 <0>         0.1292
     55 H26         1.9636    2.8671   -5.5094 H         1 <0>         0.0802
     56 H27         3.4882    2.2932   -4.7920 H         1 <0>         0.0807
     57 H28         3.3208    2.3976   -6.5610 H         1 <0>         0.1069
     58 H29        -1.4836    0.4586    3.0127 H         1 <0>         0.0886
     59 H30        -1.7080   -1.2574    3.4291 H         1 <0>         0.0828
     60 H31        -0.2071   -0.7231    2.6354 H         1 <0>         0.0881
     61 H32         2.1889    0.6281   -3.6306 H         1 <0>         0.4206
@<TRIPOS>BOND
     1    1    2 1
     2    1   30 1
     3    1   31 1
     4    1   32 1
     5    2    3 1
     6    2   33 1
     7    2   34 1
     8    3    7 1
     9    3    4 2
    10    4    5 1
    11    4   29 1
    12    5    6 1
    13    6   11 ar
    14    6    7 ar
    15    7    8 ar
    16    8    9 ar
    17    8   21 1
    18    9   10 ar
    19   10   11 ar
    20   10   12 1
    21   12   13 1
    22   13   14 1
    23   13   35 1
    24   13   36 1
    25   14   15 2
    26   14   16 am
    27   16   20 1
    28   16   17 1
    29   17   18 1
    30   17   37 1
    31   17   38 1
    32   18   19 1
    33   18   39 1
    34   18   40 1
    35   19   20 1
    36   19   41 1
    37   19   42 1
    38   20   43 1
    39   20   44 1
    40   21   26 1
    41   21   22 1
    42   22   23 1
    43   22   45 1
    44   22   46 1
    45   23   24 1
    46   23   47 1
    47   23   48 1
    48   24   25 1
    49   24   27 1
    50   24   61 1
    51   25   26 1
    52   25   49 1
    53   25   50 1
    54   26   51 1
    55   26   52 1
    56   27   28 1
    57   27   53 1
    58   27   54 1
    59   28   55 1
    60   28   56 1
    61   28   57 1
    62   29   58 1
    63   29   59 1
    64   29   60 1
@<TRIPOS>MOLECULE
ZINC35938489
   69    72     0     0     0
SMALL
USER_CHARGES

@<TRIPOS>ATOM
      1 C1         -0.0187    1.5258    0.0104 C.3       1 <0>        -0.1559
      2 C2          0.0021   -0.0041    0.0020 C.3       1 <0>        -0.1237
      3 C3          0.7421   -0.5109    1.2415 C.3       1 <0>        -0.1083
      4 C4          0.7628   -2.0407    1.2331 C.3       1 <0>        -0.1396
      5 C5          1.4917   -2.5400    2.4540 C.2       1 <0>         0.5166
      6 O1          1.9495   -1.7499    3.2523 O.2       1 <0>        -0.5215
      7 N1          1.6348   -3.8644    2.6588 N.am      1 <0>        -0.6184
      8 C6          1.0906   -4.8331    1.6969 C.3       1 <0>         0.0906
      9 C7          0.1625   -5.7980    2.4450 C.3       1 <0>         0.0795
     10 N2          0.8659   -6.2993    3.6340 N.am      1 <0>        -0.5831
     11 C8          1.4101   -5.3306    4.5959 C.3       1 <0>         0.1010
     12 C9          2.3432   -4.3655    3.8450 C.3       1 <0>         0.1223
     13 H1          2.6070   -3.5302    4.4936 H         1 <0>         0.1206
     14 C10         3.6112   -5.1042    3.4118 C.3       1 <0>        -0.1576
     15 C11         1.0091   -7.6237    3.8388 C.2       1 <0>         0.5051
     16 O2          1.5916   -8.0255    4.8238 O.2       1 <0>        -0.5236
     17 C12         0.4453   -8.6053    2.8440 C.3       1 <0>        -0.0366
     18 N3          0.7311   -9.9749    3.2916 N.4       1 <0>        -0.3686
     19 C13         0.0382  -10.2223    4.5632 C.3       1 <0>        -0.0093
     20 C14         0.5947  -11.5124    5.1901 C.3       1 <0>        -0.0566
     21 C15         0.6319  -12.5534    4.1193 C.2       1 <0>        -0.1880
     22 C16         0.4940  -12.3419    2.7800 C.2       1 <0>        -0.1449
     23 C17         0.5571  -13.4679    1.9632 C.2       1 <0>        -0.1417
     24 C18         0.7501  -14.6911    2.5102 C.2       1 <0>        -0.1550
     25 S1          0.8553  -14.3040    4.2519 S.3       1 <0>         0.1424
     26 C19         0.2865  -10.9220    2.2622 C.3       1 <0>         0.1604
     27 H2         -0.7704  -10.7613    2.0497 H         1 <0>         0.1502
     28 C20         1.0941  -10.7191    1.0062 C.ar      1 <0>        -0.1834
     29 C21         2.4520  -10.4729    1.0910 C.ar      1 <0>        -0.0741
     30 C22         3.1945  -10.2861   -0.0589 C.ar      1 <0>        -0.1382
     31 C23         2.5766  -10.3463   -1.2995 C.ar      1 <0>         0.1627
     32 C24         1.2140  -10.5940   -1.3820 C.ar      1 <0>        -0.1999
     33 C25         0.4770  -10.7852   -0.2294 C.ar      1 <0>        -0.0420
     34 O3          3.3047  -10.1624   -2.4322 O.3       1 <0>        -0.3072
     35 C26         2.6024  -10.2381   -3.6744 C.3       1 <0>         0.0210
     36 H3          1.0039    1.9031    0.0027 H         1 <0>         0.0561
     37 H4         -0.5459    1.8868   -0.8726 H         1 <0>         0.0568
     38 H5         -0.5289    1.8773    0.9072 H         1 <0>         0.0559
     39 H6         -1.0205   -0.3814    0.0098 H         1 <0>         0.0614
     40 H7          0.5123   -0.3556   -0.8948 H         1 <0>         0.0618
     41 H8          1.7647   -0.1336    1.2338 H         1 <0>         0.0715
     42 H9          0.2319   -0.1594    2.1383 H         1 <0>         0.0713
     43 H10        -0.2598   -2.4180    1.2409 H         1 <0>         0.0941
     44 H11         1.2730   -2.3923    0.3363 H         1 <0>         0.0948
     45 H12         0.5270   -4.3066    0.9267 H         1 <0>         0.1086
     46 H13         1.9068   -5.3918    1.2389 H         1 <0>         0.0792
     47 H14        -0.7426   -5.2726    2.7499 H         1 <0>         0.0957
     48 H15        -0.0979   -6.6332    1.7948 H         1 <0>         0.0965
     49 H16         0.5939   -4.7718    5.0539 H         1 <0>         0.0885
     50 H17         1.9738   -5.8570    5.3662 H         1 <0>         0.1139
     51 H18         4.2604   -4.4211    2.8641 H         1 <0>         0.0668
     52 H19         4.1347   -5.4748    4.2931 H         1 <0>         0.0733
     53 H20         3.3417   -5.9428    2.7697 H         1 <0>         0.0515
     54 H21        -0.6330   -8.4657    2.7670 H         1 <0>         0.1618
     55 H22         0.9038   -8.4385    1.8692 H         1 <0>         0.1613
     56 H23         0.2073   -9.3849    5.2401 H         1 <0>         0.1573
     57 H24        -1.0303  -10.3365    4.3805 H         1 <0>         0.1324
     58 H25         1.6012  -11.3353    5.5691 H         1 <0>         0.1139
     59 H26        -0.0550  -11.8395    6.0018 H         1 <0>         0.1299
     60 H27         0.4517  -13.3655    0.8932 H         1 <0>         0.1408
     61 H28         0.8217  -15.6514    2.0213 H         1 <0>         0.1983
     62 H29         2.9325  -10.4261    2.0571 H         1 <0>         0.1228
     63 H30         4.2550  -10.0930    0.0079 H         1 <0>         0.1437
     64 H31         0.7307  -10.6412   -2.3467 H         1 <0>         0.1431
     65 H32        -0.5830  -10.9824   -0.2932 H         1 <0>         0.1380
     66 H33         3.2991  -10.0736   -4.4963 H         1 <0>         0.1111
     67 H34         2.1477  -11.2236   -3.7752 H         1 <0>         0.0629
     68 H35         1.8246   -9.4749   -3.6991 H         1 <0>         0.0625
     69 H36         1.7252  -10.0780    3.4304 H         1 <0>         0.4269
@<TRIPOS>BOND
     1    1    2 1
     2    1   36 1
     3    1   37 1
     4    1   38 1
     5    2    3 1
     6    2   39 1
     7    2   40 1
     8    3    4 1
     9    3   41 1
    10    3   42 1
    11    4    5 1
    12    4   43 1
    13    4   44 1
    14    5    6 2
    15    5    7 am
    16    7   12 1
    17    7    8 1
    18    8    9 1
    19    8   45 1
    20    8   46 1
    21    9   10 1
    22    9   47 1
    23    9   48 1
    24   10   11 1
    25   10   15 am
    26   11   12 1
    27   11   49 1
    28   11   50 1
    29   12   13 1
    30   12   14 1
    31   14   51 1
    32   14   52 1
    33   14   53 1
    34   15   16 2
    35   15   17 1
    36   17   18 1
    37   17   54 1
    38   17   55 1
    39   18   26 1
    40   18   19 1
    41   18   69 1
    42   19   20 1
    43   19   56 1
    44   19   57 1
    45   20   21 1
    46   20   58 1
    47   20   59 1
    48   21   25 1
    49   21   22 2
    50   22   23 1
    51   22   26 1
    52   23   24 2
    53   23   60 1
    54   24   25 1
    55   24   61 1
    56   26   27 1
    57   26   28 1
    58   28   33 ar
    59   28   29 ar
    60   29   30 ar
    61   29   62 1
    62   30   31 ar
    63   30   63 1
    64   31   32 ar
    65   31   34 1
    66   32   33 ar
    67   32   64 1
    68   33   65 1
    69   34   35 1
    70   35   66 1
    71   35   67 1
    72   35   68 1
@<TRIPOS>MOLECULE
ZINC39325471
   60    63     0     0     0
SMALL
USER_CHARGES

@<TRIPOS>ATOM
      1 C1         10.4252    0.6943   -2.6459 C.3       1 <0>        -0.1574
      2 C2         10.1532   -0.6625   -3.2987 C.3       1 <0>         0.0448
      3 O1          8.9863   -1.2461   -2.7158 O.3       1 <0>        -0.2992
      4 C3          8.6036   -2.4625   -3.1869 C.ar      1 <0>         0.0857
      5 C4          9.3569   -3.0763   -4.1947 C.ar      1 <0>         0.0167
      6 C5          9.0346   -4.2893   -4.7126 C.ar      1 <0>        -0.1925
      7 C6          7.9067   -4.9902   -4.2461 C.ar      1 <0>         0.3467
      8 N1          7.6022   -6.1804   -4.7638 N.am      1 <0>        -0.5898
      9 C7          6.5586   -6.8923   -4.3731 C.2       1 <0>         0.5077
     10 O2          6.3315   -7.9733   -4.8829 O.2       1 <0>        -0.4068
     11 C8          5.6489   -6.3579   -3.2900 C.3       1 <0>        -0.1945
     12 H1          5.6337   -7.0843   -2.4775 H         1 <0>         0.2084
     13 C9          5.9907   -5.0047   -2.6978 C.2       1 <0>         0.1570
     14 C10         7.0939   -4.3695   -3.1855 C.ar      1 <0>        -0.1600
     15 C11         7.4980   -3.0630   -2.6654 C.ar      1 <0>        -0.0443
     16 C12         4.2335   -6.2738   -3.8648 C.3       1 <0>         0.1393
     17 N2          3.8301   -7.5909   -4.3636 N.pl3     1 <0>        -0.9855
     18 C13         3.5926   -7.7907   -5.7953 C.3       1 <0>         0.1455
     19 C14         4.7842   -7.2461   -6.6097 C.3       1 <0>        -0.1217
     20 C15         4.1315   -6.6296   -7.8719 C.3       1 <0>        -0.1304
     21 C16         2.8369   -5.9913   -7.3101 C.3       1 <0>        -0.1240
     22 C17         2.3545   -6.9929   -6.2407 C.3       1 <0>        -0.1436
     23 S1          3.6424   -8.8538   -3.3090 S.o2      1 <0>         2.6900
     24 O3          4.0072  -10.0311   -4.0162 O.2       1 <0>        -0.9327
     25 O4          4.2738   -8.4673   -2.0960 O.2       1 <0>        -0.9638
     26 C18         1.9207   -8.9893   -2.9596 C.ar      1 <0>        -0.6888
     27 C19         1.3563   -8.2222   -1.9577 C.ar      1 <0>        -0.0181
     28 C20         0.0056   -8.3285   -1.6835 C.ar      1 <0>        -0.1403
     29 C21        -0.7808   -9.2017   -2.4116 C.ar      1 <0>        -0.0179
     30 C22        -0.2165   -9.9682   -3.4141 C.ar      1 <0>        -0.1379
     31 C23         1.1333   -9.8587   -3.6911 C.ar      1 <0>        -0.0142
     32 C24        -2.2531   -9.3183   -2.1121 C.3       1 <0>        -0.1312
     33 H2          9.5711    1.3523   -2.8062 H         1 <0>         0.0727
     34 H3         10.5829    0.5577   -1.5761 H         1 <0>         0.0729
     35 H4         11.3153    1.1395   -3.0905 H         1 <0>         0.0889
     36 H5          9.9955   -0.5259   -4.3685 H         1 <0>         0.0716
     37 H6         11.0073   -1.3205   -3.1384 H         1 <0>         0.0717
     38 H7         10.2285   -2.5647   -4.5755 H         1 <0>         0.1701
     39 H8          9.6489   -4.7200   -5.4895 H         1 <0>         0.1748
     40 H9          5.3853   -4.5623   -1.9205 H         1 <0>         0.2055
     41 H10         6.9276   -2.5817   -1.8848 H         1 <0>         0.1806
     42 H11         3.5429   -5.9536   -3.0847 H         1 <0>         0.1139
     43 H12         4.2159   -5.5543   -4.6834 H         1 <0>         0.1133
     44 H13         3.4492   -8.8507   -6.0054 H         1 <0>         0.1125
     45 H14         5.3159   -6.4816   -6.0431 H         1 <0>         0.0489
     46 H15         5.4593   -8.0559   -6.8862 H         1 <0>         0.0877
     47 H16         4.7787   -5.8694   -8.3093 H         1 <0>         0.0692
     48 H17         3.8952   -7.4038   -8.6019 H         1 <0>         0.0778
     49 H18         3.0541   -5.0242   -6.8567 H         1 <0>         0.0631
     50 H19         2.0909   -5.8854   -8.0978 H         1 <0>         0.0741
     51 H20         1.6106   -7.6656   -6.6676 H         1 <0>         0.0795
     52 H21         1.9303   -6.4571   -5.3915 H         1 <0>         0.0766
     53 H22         1.9707   -7.5400   -1.3888 H         1 <0>         0.1366
     54 H23        -0.4352   -7.7297   -0.9003 H         1 <0>         0.1361
     55 H24        -0.8309  -10.6506   -3.9827 H         1 <0>         0.1373
     56 H25         1.5735  -10.4548   -4.4768 H         1 <0>         0.1410
     57 H26        -2.8054   -8.6016   -2.7199 H         1 <0>         0.0835
     58 H27        -2.5920  -10.3282   -2.3433 H         1 <0>         0.0770
     59 H28        -2.4268   -9.1095   -1.0565 H         1 <0>         0.0765
     60 H29         8.1730   -6.5410   -5.4602 H         1 <0>         0.4389
@<TRIPOS>BOND
     1    1    2 1
     2    1   33 1
     3    1   34 1
     4    1   35 1
     5    2    3 1
     6    2   36 1
     7    2   37 1
     8    3    4 1
     9    4   15 ar
    10    4    5 ar
    11    5    6 ar
    12    5   38 1
    13    6    7 ar
    14    6   39 1
    15    7   14 ar
    16    7    8 2
    17    8    9 am
    18    8   60 1
    19    9   10 2
    20    9   11 1
    21   11   12 1
    22   11   13 1
    23   11   16 1
    24   13   14 2
    25   13   40 1
    26   14   15 ar
    27   15   41 1
    28   16   17 1
    29   16   42 1
    30   16   43 1
    31   17   18 1
    32   17   23 1
    33   18   22 1
    34   18   19 1
    35   18   44 1
    36   19   20 1
    37   19   45 1
    38   19   46 1
    39   20   21 1
    40   20   47 1
    41   20   48 1
    42   21   22 1
    43   21   49 1
    44   21   50 1
    45   22   51 1
    46   22   52 1
    47   23   24 2
    48   23   25 2
    49   23   26 1
    50   26   31 ar
    51   26   27 ar
    52   27   28 ar
    53   27   53 1
    54   28   29 ar
    55   28   54 1
    56   29   30 ar
    57   29   32 1
    58   30   31 ar
    59   30   55 1
    60   31   56 1
    61   32   57 1
    62   32   58 1
    63   32   59 1
@<TRIPOS>MOLECULE
ZINC64508094
   62    65     0     0     0
SMALL
USER_CHARGES

@<TRIPOS>ATOM
      1 C1          1.6064    0.1896    2.2178 C.3       1 <0>        -0.1528
      2 C2          1.9670   -1.2848    2.0253 C.3       1 <0>         0.0606
      3 O1          2.0823   -1.5686    0.6295 O.3       1 <0>        -0.3517
      4 C3          2.3963   -2.8281    0.2877 C.2       1 <0>         0.4691
      5 O2          2.5676   -3.6620    1.1452 O.2       1 <0>        -0.4802
      6 C4          2.5352   -3.2022   -1.1655 C.3       1 <0>         0.0567
      7 H1          1.7540   -2.7228   -1.7554 H         1 <0>         0.1330
      8 C5          3.9318   -2.7974   -1.6933 C.3       1 <0>        -0.1027
      9 H2          4.6587   -2.7454   -0.8827 H         1 <0>         0.1012
     10 C6          4.2375   -3.9817   -2.6426 C.3       1 <0>        -0.1316
     11 C7          3.3730   -5.1029   -2.1101 C.2       1 <0>         0.1631
     12 N1          2.4725   -4.6595   -1.3249 N.2       1 <0>        -0.4546
     13 C8          3.5513   -6.5567   -2.4645 C.3       1 <0>        -0.1134
     14 C9          3.8425   -3.6344   -4.0794 C.3       1 <0>         0.0994
     15 N2          4.2500   -4.7206   -4.9740 N.am      1 <0>        -0.5852
     16 C10         3.2835   -5.7503   -5.3636 C.3       1 <0>         0.1516
     17 C11         2.6620   -5.3813   -6.6859 C.ar      1 <0>        -0.1220
     18 C12         1.4670   -4.6869   -6.7179 C.ar      1 <0>        -0.0891
     19 C13         0.8965   -4.3482   -7.9304 C.ar      1 <0>        -0.1116
     20 C14         1.5216   -4.7041   -9.1122 C.ar      1 <0>        -0.0226
     21 C15         2.7176   -5.3989   -9.0796 C.ar      1 <0>        -0.1136
     22 C16         3.2900   -5.7322   -7.8665 C.ar      1 <0>        -0.0815
     23 Cl1         0.8054   -4.2794  -10.6355 Cl        1 <0>        -0.0567
     24 C17         5.5141   -4.7726   -5.4385 C.2       1 <0>         0.5279
     25 O3          5.8251   -5.6109   -6.2580 O.2       1 <0>        -0.4867
     26 C18         6.5413   -3.7891   -4.9396 C.3       1 <0>         0.0620
     27 H3          6.5244   -3.7489   -3.8505 H         1 <0>         0.1938
     28 C19         6.2723   -2.4171   -5.5161 C.2       1 <0>         0.0213
     29 C20         7.3702   -2.0912   -6.2358 C.ar      1 <0>        -0.1408
     30 C21         7.7245   -0.9073   -7.0279 C.ar      1 <0>        -0.0162
     31 C22         8.9247   -0.8695   -7.6500 C.ar      1 <0>        -0.1440
     32 C23         9.8366   -1.9300   -7.5575 C.ar      1 <0>         0.0622
     33 C24         9.5826   -3.0504   -6.8488 C.ar      1 <0>        -0.2077
     34 C25         8.3504   -3.1974   -6.1539 C.ar      1 <0>         0.3405
     35 N3          7.8773   -4.1705   -5.4110 N.pl3     1 <0>        -0.5574
     36 C26         3.8701   -1.4752   -2.4606 C.3       1 <0>        -0.1559
     37 H4          2.3869    0.8142    1.7833 H         1 <0>         0.0668
     38 H5          0.6570    0.3989    1.7248 H         1 <0>         0.0689
     39 H6          1.5184    0.4061    3.2825 H         1 <0>         0.0841
     40 H7          2.9163   -1.4940    2.5183 H         1 <0>         0.0689
     41 H8          1.1865   -1.9094    2.4598 H         1 <0>         0.0714
     42 H9          3.9627   -6.6376   -3.4707 H         1 <0>         0.0807
     43 H10         4.2343   -7.0227   -1.7542 H         1 <0>         0.0921
     44 H11         5.2924   -4.2511   -2.5912 H         1 <0>         0.0964
     45 H12         2.5860   -7.0614   -2.4251 H         1 <0>         0.0918
     46 H13         2.7621   -3.5021   -4.1373 H         1 <0>         0.1112
     47 H14         4.3382   -2.7112   -4.3795 H         1 <0>         0.0925
     48 H15         3.7924   -6.7098   -5.4565 H         1 <0>         0.1059
     49 H16         2.5051   -5.8240   -4.6042 H         1 <0>         0.1081
     50 H17         0.9790   -4.4095   -5.7953 H         1 <0>         0.1321
     51 H18        -0.0372   -3.8061   -7.9552 H         1 <0>         0.1385
     52 H19         3.2058   -5.6773  -10.0018 H         1 <0>         0.1358
     53 H20         4.2259   -6.2705   -7.8408 H         1 <0>         0.1388
     54 H21         5.3836   -1.8186   -5.3806 H         1 <0>         0.2134
     55 H22         7.0368   -0.0789   -7.1129 H         1 <0>         0.1673
     56 H23         9.1873    0.0005   -8.2336 H         1 <0>         0.1623
     57 H24        10.7810   -1.8475   -8.0749 H         1 <0>         0.1653
     58 H25        10.3190   -3.8393   -6.8091 H         1 <0>         0.1651
     59 H26         3.5308   -0.6832   -1.7930 H         1 <0>         0.0830
     60 H27         4.8615   -1.2295   -2.8414 H         1 <0>         0.0652
     61 H28         3.1742   -1.5709   -3.2940 H         1 <0>         0.0690
     62 H29         8.3333   -5.0021   -5.2076 H         1 <0>         0.4608
@<TRIPOS>BOND
     1    1    2 1
     2    1   37 1
     3    1   38 1
     4    1   39 1
     5    2    3 1
     6    2   40 1
     7    2   41 1
     8    3    4 1
     9    4    5 2
    10    4    6 1
    11    6    7 1
    12    6    8 1
    13    6   12 1
    14    8    9 1
    15    8   36 1
    16    8   10 1
    17   10   14 1
    18   10   44 1
    19   10   11 1
    20   11   13 1
    21   11   12 2
    22   13   43 1
    23   13   45 1
    24   13   42 1
    25   14   15 1
    26   14   46 1
    27   14   47 1
    28   15   16 1
    29   15   24 am
    30   16   17 1
    31   16   48 1
    32   16   49 1
    33   17   22 ar
    34   17   18 ar
    35   18   19 ar
    36   18   50 1
    37   19   20 ar
    38   19   51 1
    39   20   21 ar
    40   20   23 1
    41   21   22 ar
    42   21   52 1
    43   22   53 1
    44   24   25 2
    45   24   26 1
    46   26   27 1
    47   26   35 1
    48   26   28 1
    49   28   29 2
    50   28   54 1
    51   29   34 ar
    52   29   30 ar
    53   30   31 ar
    54   30   55 1
    55   31   32 ar
    56   31   56 1
    57   32   33 ar
    58   32   57 1
    59   33   34 ar
    60   33   58 1
    61   34   35 2
    62   35   62 1
    63   36   59 1
    64   36   60 1
    65   36   61 1
@<TRIPOS>MOLECULE
ZINC01067850
   41    43     0     0     0
SMALL
USER_CHARGES
3-(2-chloropropanoyl)-6-(1-piperidylsulfonyl)benzooxazol-2-one
@<TRIPOS>ATOM
      1 C1          4.9025   -2.8834   -7.3198 C.3       1 <0>        -0.1510
      2 C2          5.9441   -2.6539   -6.2228 C.3       1 <0>        -0.0423
      3 H1          6.3521   -1.6473   -6.3141 H         1 <0>         0.1515
      4 C3          5.2945   -2.8121   -4.8722 C.2       1 <0>         0.5423
      5 O1          4.5336   -3.7338   -4.6698 O.2       1 <0>        -0.4378
      6 N1          5.5594   -1.9287   -3.8894 N.am      1 <0>        -0.5207
      7 C4          4.9534   -1.8855   -2.6305 C.ar      1 <0>         0.0992
      8 C5          3.9740   -2.6511   -2.0191 C.ar      1 <0>        -0.0892
      9 C6          3.5776   -2.3570   -0.7287 C.ar      1 <0>        -0.0026
     10 C7          4.1480   -1.2937   -0.0510 C.ar      1 <0>        -0.6576
     11 C8          5.1248   -0.5259   -0.6547 C.ar      1 <0>         0.0205
     12 C9          5.5327   -0.8172   -1.9470 C.ar      1 <0>         0.0342
     13 O2          6.4456   -0.2553   -2.7770 O.3       1 <0>        -0.2169
     14 C10         6.4577   -0.9251   -3.9398 C.2       1 <0>         0.6506
     15 O3          7.1684   -0.6665   -4.8911 O.2       1 <0>        -0.4369
     16 S1          3.6312   -0.9222    1.5920 S.o2      1 <0>         2.6939
     17 O4          4.7054   -0.2250    2.2078 O.2       1 <0>        -0.9429
     18 O5          3.0941   -2.1227    2.1301 O.2       1 <0>        -0.9414
     19 N2          2.3741    0.1499    1.4792 N.pl3     1 <0>        -0.9926
     20 C11         0.9879   -0.3287    1.3888 C.3       1 <0>         0.1169
     21 C12         0.3283    0.3007    0.1577 C.3       1 <0>        -0.1375
     22 C13         0.4638    1.8232    0.2336 C.3       1 <0>        -0.1194
     23 C14         1.9457    2.2056    0.2362 C.3       1 <0>        -0.1376
     24 C15         2.6236    1.5977    1.4681 C.3       1 <0>         0.1168
     25 Cl1         7.2738   -3.8593   -6.3950 Cl        1 <0>        -0.1152
     26 H2          4.0986   -2.1547   -7.2157 H         1 <0>         0.0798
     27 H3          5.3724   -2.7690   -8.2966 H         1 <0>         0.0926
     28 H4          4.4945   -3.8901   -7.2285 H         1 <0>         0.0847
     29 H5          3.5252   -3.4789   -2.5480 H         1 <0>         0.1604
     30 H6          2.8176   -2.9560   -0.2490 H         1 <0>         0.1635
     31 H7          5.5703    0.3002   -0.1204 H         1 <0>         0.1657
     32 H8          0.4413   -0.0369    2.2855 H         1 <0>         0.0804
     33 H9          0.9795   -1.4145    1.2929 H         1 <0>         0.0928
     34 H10        -0.7274    0.0302    0.1323 H         1 <0>         0.0783
     35 H11         0.8194   -0.0638   -0.7445 H         1 <0>         0.0664
     36 H12        -0.0263    2.2748   -0.6289 H         1 <0>         0.0658
     37 H13        -0.0060    2.1844    1.1484 H         1 <0>         0.0673
     38 H14         2.4216    1.8232   -0.6668 H         1 <0>         0.0660
     39 H15         2.0413    3.2909    0.2667 H         1 <0>         0.0785
     40 H16         2.2105    2.0467    2.3714 H         1 <0>         0.0809
     41 H17         3.6968    1.7832    1.4234 H         1 <0>         0.0925
@<TRIPOS>BOND
     1    1    2 1
     2    1   26 1
     3    1   27 1
     4    1   28 1
     5    2    3 1
     6    2    4 1
     7    2   25 1
     8    4    5 2
     9    4    6 am
    10    6   14 am
    11    6    7 1
    12    7   12 ar
    13    7    8 ar
    14    8    9 ar
    15    8   29 1
    16    9   10 ar
    17    9   30 1
    18   10   11 ar
    19   10   16 1
    20   11   12 ar
    21   11   31 1
    22   12   13 1
    23   13   14 1
    24   14   15 2
    25   16   17 2
    26   16   18 2
    27   16   19 1
    28   19   24 1
    29   19   20 1
    30   20   21 1
    31   20   32 1
    32   20   33 1
    33   21   22 1
    34   21   34 1
    35   21   35 1
    36   22   23 1
    37   22   36 1
    38   22   37 1
    39   23   24 1
    40   23   38 1
    41   23   39 1
    42   24   40 1
    43   24   41 1
@<TRIPOS>MOLECULE
ZINC15944766
   43    47     0     0     0
SMALL
USER_CHARGES
[(4-methyl-3-nitro-phenyl)methyleneamino]BLAHdione
@<TRIPOS>ATOM
      1 C1         -2.4868    0.0296    0.2555 C.3       1 <0>        -0.1389
      2 C2         -1.1813   -0.7109    0.1198 C.ar      1 <0>         0.0055
      3 C3         -1.1354   -2.0742    0.3534 C.ar      1 <0>        -0.1260
      4 C4          0.0569   -2.7574    0.2362 C.ar      1 <0>        -0.0230
      5 C5          1.2189   -2.0709   -0.1244 C.ar      1 <0>        -0.0679
      6 C6          1.1640   -0.6961   -0.3639 C.ar      1 <0>        -0.0153
      7 C7         -0.0356   -0.0256   -0.2429 C.ar      1 <0>        -0.0527
      8 N1         -0.0957    1.4316   -0.4957 N.pl3     1 <0>         0.0310
      9 O1          0.9297    2.0580   -0.6945 O.2       1 <0>        -0.1605
     10 O2         -1.1711    2.0033   -0.5100 O.3       1 <0>        -0.1514
     11 C8          2.4978   -2.7946   -0.2513 C.2       1 <0>         0.1306
     12 N2          2.5453   -4.0718   -0.0282 N.2       1 <0>        -0.2500
     13 N3          3.7572   -4.7575   -0.1484 N.am      1 <0>        -0.4713
     14 C9          4.9460   -4.1490   -0.4882 C.2       1 <0>         0.5260
     15 O3          5.1821   -2.9649   -0.5554 O.2       1 <0>        -0.4506
     16 C10         5.8628   -5.2979   -0.7511 C.3       1 <0>        -0.1234
     17 H1          5.5571   -5.7493   -1.7144 H         1 <0>         0.1273
     18 C11         7.3786   -5.2555   -0.7077 C.3       1 <0>        -0.0005
     19 H2          7.8387   -4.4140   -1.2376 H         1 <0>         0.1248
     20 C12         7.5736   -6.6600   -1.3983 C.2       1 <0>        -0.1610
     21 C13         7.0082   -7.6554   -0.7396 C.2       1 <0>        -0.1560
     22 C14         6.2405   -7.3755    0.5625 C.3       1 <0>         0.0024
     23 H3          5.7499   -8.2720    0.9725 H         1 <0>         0.1236
     24 C15         5.3438   -6.2078    0.3886 C.3       1 <0>        -0.1453
     25 H4          5.3882   -5.6178    1.2816 H         1 <0>         0.1206
     26 C16         3.8973   -6.1110    0.0699 C.2       1 <0>         0.5822
     27 O4          3.0784   -6.9915    0.0471 O.2       1 <0>        -0.4204
     28 C17         7.4158   -6.7718    1.4254 C.3       1 <0>        -0.1453
     29 H5          8.1020   -7.5036    1.9064 H         1 <0>         0.1318
     30 C18         8.0045   -5.5570    0.6639 C.3       1 <0>        -0.1598
     31 H6          9.0953   -5.4799    0.6909 H         1 <0>         0.1131
     32 C19         7.2976   -5.3622    1.9775 C.3       1 <0>        -0.1594
     33 H7         -2.9490    0.1340   -0.7262 H         1 <0>         0.0946
     34 H8         -3.1537   -0.5273    0.9137 H         1 <0>         0.0781
     35 H9         -2.3020    1.0177    0.6769 H         1 <0>         0.1015
     36 H10        -2.0345   -2.6036    0.6325 H         1 <0>         0.1545
     37 H11         0.0922   -3.8205    0.4232 H         1 <0>         0.1541
     38 H12         2.0586   -0.1590   -0.6427 H         1 <0>         0.1619
     39 H13         3.3947   -2.2613   -0.5299 H         1 <0>         0.1597
     40 H14         8.1171   -6.7877   -2.3191 H         1 <0>         0.1362
     41 H15         7.0811   -8.6642   -1.1088 H         1 <0>         0.1226
     42 H16         7.9579   -5.1195    2.8379 H         1 <0>         0.1001
     43 H17         6.4110   -4.7587    1.9890 H         1 <0>         0.0964
@<TRIPOS>BOND
     1    1    2 1
     2    1   33 1
     3    1   34 1
     4    1   35 1
     5    2    7 ar
     6    2    3 ar
     7    3    4 ar
     8    3   36 1
     9    4    5 ar
    10    4   37 1
    11    5    6 ar
    12    5   11 1
    13    6    7 ar
    14    6   38 1
    15    7    8 1
    16    8    9 2
    17    8   10 1
    18   11   12 2
    19   11   39 1
    20   12   13 1
    21   13   26 am
    22   13   14 am
    23   14   15 2
    24   14   16 1
    25   16   17 1
    26   16   24 1
    27   16   18 1
    28   18   19 1
    29   18   30 1
    30   18   20 1
    31   20   21 2
    32   20   40 1
    33   21   22 1
    34   21   41 1
    35   22   23 1
    36   22   24 1
    37   22   28 1
    38   24   25 1
    39   24   26 1
    40   26   27 2
    41   28   29 1
    42   28   32 1
    43   28   30 1
    44   30   31 1
    45   30   32 1
    46   32   42 1
    47   32   43 1
@<TRIPOS>MOLECULE
ZINC38712577
   42    46     0     0     0
SMALL
USER_CHARGES

@<TRIPOS>ATOM
      1 C1         -0.0187    1.5258    0.0104 C.3       1 <0>        -0.1504
      2 C2          0.0021   -0.0041    0.0020 C.3       1 <0>        -0.0292
      3 C3          0.7309   -0.5033    1.2229 C.2       1 <0>         0.0637
      4 N1          0.2699   -0.8041    2.4210 N.2       1 <0>        -0.2548
      5 N2          1.0220   -1.2150    3.3463 N.2       1 <0>        -0.2896
      6 C4          2.3272   -1.3700    3.1698 C.2       1 <0>         0.2907
      7 S1          2.4688   -0.8646    1.4579 S.3       1 <0>         0.0517
      8 N3          3.3034   -1.8050    4.0568 N.am      1 <0>        -0.4920
      9 C5          3.0826   -2.2135    5.4537 C.3       1 <0>         0.2420
     10 H1          2.6707   -1.3835    6.0277 H         1 <0>         0.1390
     11 C6          4.4266   -2.5904    5.9847 C.2       1 <0>        -0.2332
     12 C7          4.8446   -3.0647    7.3077 C.2       1 <0>         0.4582
     13 O1          4.0577   -3.3950    8.1773 O.2       1 <0>        -0.4224
     14 C8          6.3181   -3.1048    7.4866 C.ar      1 <0>        -0.2103
     15 C9          6.8706   -3.3410    8.7451 C.ar      1 <0>        -0.0302
     16 C10         8.2293   -3.3698    8.8945 C.ar      1 <0>        -0.1385
     17 C11         9.0570   -3.1643    7.7995 C.ar      1 <0>        -0.0507
     18 C12         8.5286   -2.9315    6.5497 C.ar      1 <0>        -0.1319
     19 C13         7.1456   -2.8998    6.3706 C.ar      1 <0>         0.1400
     20 O2          6.6483   -2.6792    5.1323 O.3       1 <0>        -0.1752
     21 C14         5.3351   -2.4181    4.9785 C.2       1 <0>         0.0991
     22 C15         4.6187   -1.9325    3.7873 C.2       1 <0>         0.5748
     23 O3          5.1375   -1.6810    2.7177 O.2       1 <0>        -0.4409
     24 C16         2.1499   -3.3960    5.5083 C.ar      1 <0>        -0.1513
     25 C17         1.1918   -3.4890    6.5065 C.ar      1 <0>        -0.0285
     26 C18         0.3556   -4.5946    6.5175 C.ar      1 <0>        -0.1653
     27 C19         0.5035   -5.5607    5.5400 C.ar      1 <0>         0.1118
     28 N4          1.4263   -5.4394    4.6061 N.ar      1 <0>        -0.4796
     29 C20         2.2350   -4.3985    4.5611 C.ar      1 <0>         0.1214
     30 H2          1.0039    1.9031    0.0027 H         1 <0>         0.0602
     31 H3         -0.5459    1.8868   -0.8726 H         1 <0>         0.0768
     32 H4         -0.5289    1.8773    0.9072 H         1 <0>         0.0651
     33 H5         -1.0205   -0.3814    0.0098 H         1 <0>         0.1090
     34 H6          0.5123   -0.3556   -0.8948 H         1 <0>         0.0985
     35 H7          6.2278   -3.5002    9.5983 H         1 <0>         0.1474
     36 H8          8.6599   -3.5526    9.8679 H         1 <0>         0.1423
     37 H9         10.1289   -3.1870    7.9296 H         1 <0>         0.1464
     38 H10         9.1855   -2.7731    5.7072 H         1 <0>         0.1500
     39 H11         1.0995   -2.7185    7.2577 H         1 <0>         0.1419
     40 H12        -0.4017   -4.6999    7.2803 H         1 <0>         0.1434
     41 H13        -0.1440   -6.4251    5.5416 H         1 <0>         0.1613
     42 H14         2.9753   -4.3311    3.7777 H         1 <0>         0.1396
@<TRIPOS>BOND
     1    1    2 1
     2    1   30 1
     3    1   31 1
     4    1   32 1
     5    2    3 1
     6    2   33 1
     7    2   34 1
     8    3    7 1
     9    3    4 2
    10    4    5 1
    11    5    6 2
    12    6    7 1
    13    6    8 1
    14    8   22 am
    15    8    9 1
    16    9   10 1
    17    9   11 1
    18    9   24 1
    19   11   21 2
    20   11   12 1
    21   12   13 2
    22   12   14 1
    23   14   19 ar
    24   14   15 ar
    25   15   16 ar
    26   15   35 1
    27   16   17 ar
    28   16   36 1
    29   17   18 ar
    30   17   37 1
    31   18   19 ar
    32   18   38 1
    33   19   20 1
    34   20   21 1
    35   21   22 1
    36   22   23 2
    37   24   29 ar
    38   24   25 ar
    39   25   26 ar
    40   25   39 1
    41   26   27 ar
    42   26   40 1
    43   27   28 ar
    44   27   41 1
    45   28   29 ar
    46   29   42 1
@<TRIPOS>MOLECULE
ZINC59336775
   35    37     0     0     0
SMALL
USER_CHARGES

@<TRIPOS>ATOM
      1 C1          0.2625    1.3135   -0.9009 C.ar      1 <0>        -0.0968
      2 C2          1.4277    2.0357   -0.7235 C.ar      1 <0>        -0.1213
      3 C3          2.6315    1.3762   -0.5598 C.ar      1 <0>        -0.0809
      4 C4          2.6700   -0.0056   -0.5729 C.ar      1 <0>        -0.1105
      5 C5          1.5046   -0.7278   -0.7494 C.ar      1 <0>        -0.0772
      6 C6          0.3010   -0.0683   -0.9146 C.ar      1 <0>        -0.1226
      7 C7          3.9825   -0.7245   -0.3954 C.3       1 <0>         0.3274
      8 O1          4.5554   -0.3632    0.8665 O.3       1 <0>        -0.3541
      9 C8          5.7007   -1.0212    1.1994 C.2       1 <0>         0.5355
     10 O2          6.6775   -0.4500    1.6433 O.2       1 <0>        -0.4123
     11 C9          5.6651   -2.4940    0.9787 C.2       1 <0>        -0.2904
     12 C10         6.3243   -3.3904    1.7918 C.2       1 <0>         0.0869
     13 C11         6.1088   -4.8308    1.6214 C.ar      1 <0>        -0.0560
     14 C12         7.1434   -5.7354    1.8944 C.ar      1 <0>        -0.0763
     15 C13         6.9318   -7.0874    1.7313 C.ar      1 <0>        -0.0588
     16 C14         5.7014   -7.5526    1.2991 C.ar      1 <0>        -0.0260
     17 C15         4.6733   -6.6660    1.0270 C.ar      1 <0>        -0.0535
     18 C16         4.8651   -5.3111    1.1900 C.ar      1 <0>        -0.0712
     19 N1          5.4840   -9.0065    1.1265 N.pl3     1 <0>         0.0281
     20 O3          6.3793   -9.7839    1.3627 O.2       1 <0>        -0.1490
     21 O4          4.4111   -9.4167    0.7493 O.3       1 <0>        -0.1492
     22 C17         4.8540   -2.9121   -0.1987 C.2       1 <0>         0.5284
     23 O5          5.1456   -3.8712   -0.8863 O.2       1 <0>        -0.4075
     24 O6          3.7604   -2.1386   -0.4462 O.3       1 <0>        -0.3605
     25 H1         -0.6787    1.8287   -1.0244 H         1 <0>         0.1294
     26 H2          1.3976    3.1152   -0.7132 H         1 <0>         0.1321
     27 H3          3.5420    1.9405   -0.4219 H         1 <0>         0.1314
     28 H4          1.5347   -1.8073   -0.7601 H         1 <0>         0.1359
     29 H5         -0.6094   -0.6326   -1.0529 H         1 <0>         0.1312
     30 H6          4.6638   -0.4364   -1.1959 H         1 <0>         0.1097
     31 H7          6.9997   -3.0320    2.5546 H         1 <0>         0.1721
     32 H8          8.1039   -5.3742    2.2312 H         1 <0>         0.1593
     33 H9          7.7283   -7.7861    1.9409 H         1 <0>         0.1633
     34 H10         3.7168   -7.0377    0.6903 H         1 <0>         0.1613
     35 H11         4.0607   -4.6212    0.9815 H         1 <0>         0.1422
@<TRIPOS>BOND
     1    1    6 ar
     2    1    2 ar
     3    1   25 1
     4    2    3 ar
     5    2   26 1
     6    3    4 ar
     7    3   27 1
     8    4    5 ar
     9    4    7 1
    10    5    6 ar
    11    5   28 1
    12    6   29 1
    13    7   24 1
    14    7    8 1
    15    7   30 1
    16    8    9 1
    17    9   10 2
    18    9   11 1
    19   11   12 2
    20   11   22 1
    21   12   13 1
    22   12   31 1
    23   13   18 ar
    24   13   14 ar
    25   14   15 ar
    26   14   32 1
    27   15   16 ar
    28   15   33 1
    29   16   17 ar
    30   16   19 1
    31   17   18 ar
    32   17   34 1
    33   18   35 1
    34   19   20 2
    35   19   21 1
    36   22   23 2
    37   22   24 1
@<TRIPOS>MOLECULE
ZINC66818706
   41    44     0     0     0
SMALL
USER_CHARGES

@<TRIPOS>ATOM
      1 C1         -0.0167    1.3777    0.0096 C.ar      1 <0>        -0.1100
      2 C2          1.1697    2.0876    0.0021 C.ar      1 <0>        -0.1022
      3 C3          2.3783    1.4178   -0.0143 C.ar      1 <0>        -0.1011
      4 C4          2.4042    0.0310   -0.0230 C.ar      1 <0>         0.0603
      5 C5          1.2117   -0.6826   -0.0129 C.ar      1 <0>         0.0550
      6 C6          0.0021   -0.0041    0.0020 C.ar      1 <0>        -0.1084
      7 O1          1.2145   -2.0436   -0.0133 O.3       1 <0>        -0.3050
      8 C7          2.4336   -2.6847   -0.4041 C.3       1 <0>         0.0199
      9 C8          3.5941   -1.9974    0.3280 C.3       1 <0>         0.0197
     10 O2          3.6022   -0.6147   -0.0433 O.3       1 <0>        -0.3046
     11 C9          3.6695    2.1948   -0.0233 C.3       1 <0>         0.1914
     12 H1          4.4296    1.6570    0.5433 H         1 <0>         0.0942
     13 C10         4.1470    2.4025   -1.4761 C.3       1 <0>        -0.1179
     14 C11         4.7178    3.8450   -1.4514 C.3       1 <0>        -0.1349
     15 C12         3.7512    4.5452   -0.4639 C.3       1 <0>         0.1100
     16 N1          3.4563    3.5257    0.5639 N.pl3     1 <0>        -0.5902
     17 C13         3.0446    3.7796    1.8671 C.ar      1 <0>         0.4644
     18 C14         2.9057    2.7251    2.7641 C.ar      1 <0>        -0.2257
     19 C15         2.4958    2.9922    4.0577 C.ar      1 <0>         0.0277
     20 C16         2.2375    4.3098    4.4124 C.ar      1 <0>        -0.1707
     21 C17         2.3961    5.3069    3.4713 C.ar      1 <0>         0.2343
     22 N2          2.7935    5.0233    2.2452 N.ar      1 <0>        -0.5293
     23 N3          1.7962    4.6415    5.7857 N.pl3     1 <0>         0.0511
     24 O3          1.6589    3.7633    6.6051 O.2       1 <0>        -0.1702
     25 O4          1.5731    5.7906    6.0880 O.3       1 <0>        -0.1664
     26 H2         -0.9596    1.9040    0.0259 H         1 <0>         0.1337
     27 H3          1.1518    3.1674    0.0087 H         1 <0>         0.1274
     28 H4         -0.9261   -0.5562    0.0079 H         1 <0>         0.1371
     29 H5          2.3988   -3.7390   -0.1298 H         1 <0>         0.1246
     30 H6          2.5703   -2.5889   -1.4813 H         1 <0>         0.0795
     31 H7          3.4543   -2.0880    1.4052 H         1 <0>         0.0795
     32 H8          4.5372   -2.4612    0.0389 H         1 <0>         0.1254
     33 H9          4.9254    1.6840   -1.7327 H         1 <0>         0.0919
     34 H10         3.3103    2.3307   -2.1710 H         1 <0>         0.0827
     35 H11         5.7393    3.8545   -1.0711 H         1 <0>         0.0804
     36 H12         4.6662    4.3026   -2.4394 H         1 <0>         0.0921
     37 H13         4.2338    5.4108   -0.0102 H         1 <0>         0.0868
     38 H14         2.8369    4.8447   -0.9762 H         1 <0>         0.0736
     39 H15         3.1147    1.7118    2.4543 H         1 <0>         0.1483
     40 H16         2.3788    2.1939    4.7757 H         1 <0>         0.1608
     41 H17         2.1960    6.3329    3.7429 H         1 <0>         0.1846
@<TRIPOS>BOND
     1    1    6 ar
     2    1    2 ar
     3    1   26 1
     4    2    3 ar
     5    2   27 1
     6    3    4 ar
     7    3   11 1
     8    4   10 1
     9    4    5 ar
    10    5    6 ar
    11    5    7 1
    12    6   28 1
    13    7    8 1
    14    8    9 1
    15    8   29 1
    16    8   30 1
    17    9   10 1
    18    9   31 1
    19    9   32 1
    20   11   12 1
    21   11   16 1
    22   11   13 1
    23   13   14 1
    24   13   33 1
    25   13   34 1
    26   14   15 1
    27   14   35 1
    28   14   36 1
    29   15   16 1
    30   15   37 1
    31   15   38 1
    32   16   17 1
    33   17   22 ar
    34   17   18 ar
    35   18   19 ar
    36   18   39 1
    37   19   20 ar
    38   19   40 1
    39   20   21 ar
    40   20   23 1
    41   21   22 ar
    42   21   41 1
    43   23   24 2
    44   23   25 1
@<TRIPOS>MOLECULE
ZINC00061473
   33    36     0     0     0
SMALL
USER_CHARGES
3-(2-chlorophenyl)-9-phenyl-4-oxa-2,8,9-triazabicyclo[4.3.0]nona-2,7,10-trien-5-one
@<TRIPOS>ATOM
      1 C1         -3.3414   -2.4914    0.0215 C.ar      1 <0>        -0.1102
      2 C2         -3.3670   -1.2956    0.7156 C.ar      1 <0>        -0.1031
      3 C3         -2.2607   -0.4690    0.7109 C.ar      1 <0>        -0.1014
      4 C4         -1.1214   -0.8400    0.0087 C.ar      1 <0>         0.1378
      5 C5         -1.1007   -2.0391   -0.6916 C.ar      1 <0>        -0.1109
      6 C6         -2.2084   -2.8640   -0.6784 C.ar      1 <0>        -0.1030
      7 N1          0.0021   -0.0041    0.0020 N.pl3     1 <0>        -0.2890
      8 C7          1.3001   -0.4128   -0.0126 C.2       1 <0>         0.3445
      9 C8          2.0870    0.7527   -0.0138 C.2       1 <0>        -0.3694
     10 C9          1.2071    1.8500    0.0005 C.2       1 <0>         0.1457
     11 N2         -0.0169    1.3965    0.0097 N.2       1 <0>        -0.2592
     12 C10         3.5414    0.5998   -0.0281 C.2       1 <0>         0.5569
     13 O1          4.2778    1.5691   -0.0295 O.2       1 <0>        -0.4396
     14 O2          4.0380   -0.6577   -0.0392 O.3       1 <0>        -0.2985
     15 C11         3.2111   -1.7171   -0.0371 C.2       1 <0>         0.4536
     16 N3          1.9066   -1.6073   -0.0241 N.2       1 <0>        -0.5024
     17 C12         3.8021   -3.0693   -0.0496 C.ar      1 <0>        -0.0685
     18 C13         5.1900   -3.2288   -0.0633 C.ar      1 <0>        -0.0506
     19 C14         5.7353   -4.4951   -0.0744 C.ar      1 <0>        -0.1239
     20 C15         4.9118   -5.6078   -0.0721 C.ar      1 <0>        -0.0646
     21 C16         3.5369   -5.4590   -0.0585 C.ar      1 <0>        -0.1223
     22 C17         2.9761   -4.1969   -0.0419 C.ar      1 <0>         0.0225
     23 Cl1         1.2501   -4.0115   -0.0183 Cl        1 <0>        -0.0124
     24 H1         -4.2080   -3.1360    0.0264 H         1 <0>         0.1326
     25 H2         -4.2533   -1.0077    1.2615 H         1 <0>         0.1361
     26 H3         -2.2813    0.4648    1.2532 H         1 <0>         0.1360
     27 H4         -0.2179   -2.3283   -1.2424 H         1 <0>         0.1369
     28 H5         -2.1913   -3.7987   -1.2191 H         1 <0>         0.1341
     29 H6          1.4952    2.8909    0.0026 H         1 <0>         0.2097
     30 H7          5.8343   -2.3620   -0.0655 H         1 <0>         0.1493
     31 H8          6.8081   -4.6193   -0.0847 H         1 <0>         0.1435
     32 H9          5.3451   -6.5970   -0.0805 H         1 <0>         0.1431
     33 H10         2.9004   -6.3315   -0.0568 H         1 <0>         0.1467
@<TRIPOS>BOND
     1    1    6 ar
     2    1    2 ar
     3    1   24 1
     4    2    3 ar
     5    2   25 1
     6    3    4 ar
     7    3   26 1
     8    4    5 ar
     9    4    7 1
    10    5    6 ar
    11    5   27 1
    12    6   28 1
    13    7   11 1
    14    7    8 1
    15    8   16 1
    16    8    9 2
    17    9   10 1
    18    9   12 1
    19   10   11 2
    20   10   29 1
    21   12   13 2
    22   12   14 1
    23   14   15 1
    24   15   16 2
    25   15   17 1
    26   17   22 ar
    27   17   18 ar
    28   18   19 ar
    29   18   30 1
    30   19   20 ar
    31   19   31 1
    32   20   21 ar
    33   20   32 1
    34   21   22 ar
    35   21   33 1
    36   22   23 1
@<TRIPOS>MOLECULE
ZINC14245428
   53    56     0     0     0
SMALL
USER_CHARGES
4-[(4aS,8aS)-3,4,4a,5,6,7,8,8a-octahydro-2H-quinoline-1-carbonyl]-2-propyl-phthalazin-1-one
@<TRIPOS>ATOM
      1 C1         -1.2661    2.3651    2.7910 C.3       1 <0>        -0.1483
      2 C2         -1.6218    2.5602    1.3157 C.3       1 <0>        -0.1395
      3 C3         -0.7300    1.6648    0.4533 C.3       1 <0>         0.1118
      4 N1         -1.0706    1.8516   -0.9592 N.am      1 <0>        -0.3678
      5 C4         -0.4209    2.8103   -1.6510 C.2       1 <0>         0.5154
      6 O1          0.4257    3.5007   -1.1138 O.2       1 <0>        -0.4978
      7 C5         -0.7551    2.9980   -3.0696 C.ar      1 <0>        -0.1395
      8 C6         -0.1394    3.9542   -3.8711 C.ar      1 <0>        -0.0528
      9 C7         -0.5145    4.0711   -5.1926 C.ar      1 <0>        -0.1143
     10 C8         -1.4955    3.2464   -5.7276 C.ar      1 <0>        -0.0847
     11 C9         -2.1167    2.2921   -4.9501 C.ar      1 <0>        -0.0927
     12 C10        -1.7537    2.1578   -3.6144 C.ar      1 <0>        -0.0325
     13 C11        -2.3676    1.1657   -2.7172 C.2       1 <0>         0.0578
     14 N2         -1.9718    1.1004   -1.4692 N.2       1 <0>        -0.1922
     15 C12        -3.4163    0.2546   -3.2169 C.2       1 <0>         0.5807
     16 O2         -4.1235    0.5932   -4.1460 O.2       1 <0>        -0.4974
     17 N3         -3.5897   -0.9525   -2.6431 N.am      1 <0>        -0.5792
     18 C13        -2.8075   -1.3424   -1.4608 C.3       1 <0>         0.0826
     19 C14        -2.1300   -2.6841   -1.7295 C.3       1 <0>        -0.1407
     20 C15        -3.1787   -3.7115   -2.1625 C.3       1 <0>        -0.1179
     21 C16        -3.8462   -3.2371   -3.4591 C.3       1 <0>        -0.0990
     22 H1         -4.5696   -3.9809   -3.7930 H         1 <0>         0.0847
     23 C17        -4.5591   -1.9101   -3.1876 C.3       1 <0>         0.1540
     24 H2         -5.3546   -2.0707   -2.4600 H         1 <0>         0.0755
     25 C18        -5.1605   -1.3708   -4.4818 C.3       1 <0>        -0.1165
     26 C19        -4.0796   -1.1630   -5.5262 C.3       1 <0>        -0.1244
     27 C20        -3.4008   -2.5051   -5.8105 C.3       1 <0>        -0.1285
     28 C21        -2.7653   -3.0319   -4.5233 C.3       1 <0>        -0.1124
     29 H3         -1.4223    1.3223    3.0675 H         1 <0>         0.0599
     30 H4         -0.2212    2.6308    2.9510 H         1 <0>         0.0600
     31 H5         -1.9015    3.0030    3.4054 H         1 <0>         0.0631
     32 H6         -1.4657    3.6029    1.0392 H         1 <0>         0.0689
     33 H7         -2.6667    2.2944    1.1557 H         1 <0>         0.0711
     34 H8         -0.8861    0.6221    0.7299 H         1 <0>         0.1014
     35 H9          0.3149    1.9306    0.6134 H         1 <0>         0.1059
     36 H10         0.6242    4.5991   -3.4619 H         1 <0>         0.1426
     37 H11        -0.0399    4.8120   -5.8189 H         1 <0>         0.1373
     38 H12        -1.7748    3.3535   -6.7653 H         1 <0>         0.1369
     39 H13        -2.8786    1.6550   -5.3744 H         1 <0>         0.1591
     40 H14        -2.0490   -0.5860   -1.2591 H         1 <0>         0.1218
     41 H15        -3.4694   -1.4370   -0.6000 H         1 <0>         0.0733
     42 H16        -1.6351   -3.0307   -0.8223 H         1 <0>         0.0754
     43 H17        -1.3917   -2.5626   -2.5221 H         1 <0>         0.0692
     44 H18        -3.9321   -3.8138   -1.3816 H         1 <0>         0.0654
     45 H19        -2.6966   -4.6742   -2.3325 H         1 <0>         0.0668
     46 H20        -5.9008   -2.0765   -4.8587 H         1 <0>         0.0569
     47 H21        -5.6425   -0.4130   -4.2855 H         1 <0>         0.0942
     48 H22        -3.3411   -0.4532   -5.1534 H         1 <0>         0.0921
     49 H23        -4.5238   -0.7780   -6.4440 H         1 <0>         0.0575
     50 H24        -2.6291   -2.3693   -6.5682 H         1 <0>         0.0568
     51 H25        -4.1422   -3.2192   -6.1690 H         1 <0>         0.0574
     52 H26        -2.0314   -2.3123   -4.1605 H         1 <0>         0.0632
     53 H27        -2.2715   -3.9822   -4.7263 H         1 <0>         0.0593
@<TRIPOS>BOND
     1    1    2 1
     2    1   29 1
     3    1   30 1
     4    1   31 1
     5    2    3 1
     6    2   32 1
     7    2   33 1
     8    3    4 1
     9    3   34 1
    10    3   35 1
    11    4   14 1
    12    4    5 am
    13    5    6 2
    14    5    7 1
    15    7   12 ar
    16    7    8 ar
    17    8    9 ar
    18    8   36 1
    19    9   10 ar
    20    9   37 1
    21   10   11 ar
    22   10   38 1
    23   11   12 ar
    24   11   39 1
    25   12   13 1
    26   13   14 2
    27   13   15 1
    28   15   16 2
    29   15   17 am
    30   17   23 1
    31   17   18 1
    32   18   19 1
    33   18   40 1
    34   18   41 1
    35   19   20 1
    36   19   42 1
    37   19   43 1
    38   20   21 1
    39   20   44 1
    40   20   45 1
    41   21   22 1
    42   21   28 1
    43   21   23 1
    44   23   24 1
    45   23   25 1
    46   25   26 1
    47   25   46 1
    48   25   47 1
    49   26   27 1
    50   26   48 1
    51   26   49 1
    52   27   28 1
    53   27   50 1
    54   27   51 1
    55   28   52 1
    56   28   53 1
@<TRIPOS>MOLECULE
ZINC33644595
   45    50     0     0     0
SMALL
USER_CHARGES
(3S,5R,9bR)-5-(benzotriazol-1-yl)-3-phenyl-2,3,5,9b-tetrahydrooxazolo[2,3-a]isoindole
@<TRIPOS>ATOM
      1 C1         -3.5750    4.9172   -0.5814 C.ar      1 <0>        -0.1140
      2 C2         -3.7460    3.9775   -1.5807 C.ar      1 <0>        -0.1194
      3 C3         -2.7721    3.0225   -1.8053 C.ar      1 <0>        -0.1110
      4 C4         -1.6270    3.0076   -1.0311 C.ar      1 <0>        -0.0814
      5 C5         -1.4584    3.9441   -0.0284 C.ar      1 <0>        -0.0862
      6 C6         -2.4304    4.9018    0.1934 C.ar      1 <0>        -0.1197
      7 C7         -0.5653    1.9665   -1.2760 C.3       1 <0>         0.0637
      8 H1         -1.0470    1.1487   -1.8320 H         1 <0>         0.0952
      9 C8          0.6420    2.5923   -2.0073 C.3       1 <0>         0.0372
     10 O1          1.7839    1.9498   -1.3936 O.3       1 <0>        -0.3712
     11 C9          1.4224    1.8508   -0.0016 C.3       1 <0>         0.2553
     12 H2          1.6534    2.8049    0.4946 H         1 <0>         0.1233
     13 N1         -0.0180    1.4760    0.0102 N.3       1 <0>        -0.4707
     14 C10         0.0021   -0.0041    0.0020 C.3       1 <0>         0.3563
     15 H3         -0.1170   -0.3999   -1.0174 H         1 <0>         0.1109
     16 C11         1.3119   -0.4062    0.6391 C.ar      1 <0>        -0.1072
     17 C12         2.1541    0.6926    0.6328 C.ar      1 <0>        -0.0907
     18 C13         3.4270    0.5879    1.1612 C.ar      1 <0>        -0.0786
     19 C14         3.8580   -0.6112    1.6973 C.ar      1 <0>        -0.1033
     20 C15         3.0162   -1.7073    1.7049 C.ar      1 <0>        -0.1039
     21 C16         1.7435   -1.6044    1.1749 C.ar      1 <0>        -0.0802
     22 N2         -1.1209   -0.5283    0.7832 N.pl3     1 <0>        -0.3861
     23 C17        -1.9685   -1.5486    0.4227 C.ar      1 <0>         0.0852
     24 C18        -2.0681   -2.3739   -0.6924 C.ar      1 <0>        -0.1276
     25 C19        -3.0515   -3.3211   -0.7509 C.ar      1 <0>        -0.0655
     26 C20        -3.9540   -3.4684    0.2947 C.ar      1 <0>        -0.1355
     27 C21        -3.8730   -2.6767    1.4027 C.ar      1 <0>        -0.0337
     28 C22        -2.8770   -1.6944    1.4854 C.ar      1 <0>        -0.0144
     29 N3         -2.5623   -0.7770    2.4215 N.2       1 <0>        -0.2266
     30 N4         -1.5467   -0.0836    2.0438 N.2       1 <0>         0.0273
     31 H4         -4.3356    5.6638   -0.4064 H         1 <0>         0.1230
     32 H5         -4.6403    3.9896   -2.1861 H         1 <0>         0.1236
     33 H6         -2.9057    2.2883   -2.5860 H         1 <0>         0.1191
     34 H7         -0.5658    3.9297    0.5794 H         1 <0>         0.1227
     35 H8         -2.2966    5.6362    0.9739 H         1 <0>         0.1238
     36 H9          0.5706    2.3769   -3.0836 H         1 <0>         0.1117
     37 H10         0.6416    3.6811   -1.8505 H         1 <0>         0.0843
     38 H11         4.0854    1.4440    1.1556 H         1 <0>         0.1324
     39 H12         4.8529   -0.6915    2.1099 H         1 <0>         0.1353
     40 H13         3.3527   -2.6439    2.1243 H         1 <0>         0.1339
     41 H14         1.0857   -2.4610    1.1808 H         1 <0>         0.1222
     42 H15        -1.3701   -2.2667   -1.5096 H         1 <0>         0.1270
     43 H16        -3.1273   -3.9611   -1.6175 H         1 <0>         0.1375
     44 H17        -4.7246   -4.2225    0.2326 H         1 <0>         0.1373
     45 H18        -4.5816   -2.7987    2.2085 H         1 <0>         0.1386
@<TRIPOS>BOND
     1    1    6 ar
     2    1    2 ar
     3    1   31 1
     4    2    3 ar
     5    2   32 1
     6    3    4 ar
     7    3   33 1
     8    4    5 ar
     9    4    7 1
    10    5    6 ar
    11    5   34 1
    12    6   35 1
    13    7    8 1
    14    7   13 1
    15    7    9 1
    16    9   10 1
    17    9   36 1
    18    9   37 1
    19   10   11 1
    20   11   12 1
    21   11   17 1
    22   11   13 1
    23   13   14 1
    24   14   15 1
    25   14   16 1
    26   14   22 1
    27   16   21 ar
    28   16   17 ar
    29   17   18 ar
    30   18   19 ar
    31   18   38 1
    32   19   20 ar
    33   19   39 1
    34   20   21 ar
    35   20   40 1
    36   21   41 1
    37   22   30 1
    38   22   23 1
    39   23   28 ar
    40   23   24 ar
    41   24   25 ar
    42   24   42 1
    43   25   26 ar
    44   25   43 1
    45   26   27 ar
    46   26   44 1
    47   27   28 ar
    48   27   45 1
    49   28   29 1
    50   29   30 2
@<TRIPOS>MOLECULE
ZINC48540263
   24    25     0     0     0
SMALL
USER_CHARGES

@<TRIPOS>ATOM
      1 C1         -0.0202    1.3719    0.0109 C.ar      1 <0>        -0.1124
      2 C2          1.1597    2.0774   -0.1393 C.ar      1 <0>        -0.0514
      3 C3          2.3682    1.4088   -0.1552 C.ar      1 <0>        -0.1203
      4 C4          2.3978    0.0281   -0.0203 C.ar      1 <0>         0.1576
      5 C5          1.2128   -0.6772    0.1302 C.ar      1 <0>        -0.0588
      6 C6          0.0065   -0.0037    0.1455 C.ar      1 <0>        -0.0427
      7 N1          1.2407   -2.1501    0.2739 N.pl3     1 <0>         0.0355
      8 O1          0.2076   -2.7643    0.4051 O.2       1 <0>        -0.1489
      9 O2          2.2965   -2.7390    0.2601 O.3       1 <0>        -0.1518
     10 O3          3.5856   -0.6321   -0.0361 O.3       1 <0>        -0.2849
     11 C7          4.0259   -1.1148   -1.2154 C.2       1 <0>         0.5444
     12 O4          3.4132   -0.8741   -2.2375 O.2       1 <0>        -0.4904
     13 C8          5.2470   -1.9320   -1.2655 C.2       1 <0>        -0.1792
     14 C9          5.7519   -2.4613   -2.5101 C.2       1 <0>        -0.0513
     15 C10         6.8799   -3.1950   -2.4194 C.2       1 <0>        -0.2202
     16 S1          7.2433   -3.1636   -0.6775 S.3       1 <0>         0.2824
     17 C11         5.9666   -2.2241   -0.1277 C.2       1 <0>        -0.1575
     18 Br1         7.8409   -4.0499   -3.8056 Br        1 <0>         0.0512
     19 H1         -0.9638    1.8970    0.0275 H         1 <0>         0.1564
     20 H2          1.1362    3.1520   -0.2447 H         1 <0>         0.1547
     21 H3          3.2894    1.9602   -0.2729 H         1 <0>         0.1557
     22 H4         -0.9163   -0.5524    0.2627 H         1 <0>         0.1632
     23 H5          5.2577   -2.2816   -3.4534 H         1 <0>         0.1611
     24 H6          5.7558   -1.9197    0.8868 H         1 <0>         0.2077
@<TRIPOS>BOND
     1    1    6 ar
     2    1    2 ar
     3    1   19 1
     4    2    3 ar
     5    2   20 1
     6    3    4 ar
     7    3   21 1
     8    4    5 ar
     9    4   10 1
    10    5    6 ar
    11    5    7 1
    12    6   22 1
    13    7    8 2
    14    7    9 1
    15   10   11 1
    16   11   12 2
    17   11   13 1
    18   13   17 2
    19   13   14 1
    20   14   15 2
    21   14   23 1
    22   15   16 1
    23   15   18 1
    24   16   17 1
    25   17   24 1
@<TRIPOS>MOLECULE
ZINC67428936
   43    46     0     0     0
SMALL
USER_CHARGES

@<TRIPOS>ATOM
      1 C1         -0.0167    1.3811    0.0096 C.ar      1 <0>        -0.0963
      2 C2          1.1671    2.0985    0.0022 C.ar      1 <0>        -0.1247
      3 C3          2.3796    1.4403   -0.0268 C.ar      1 <0>        -0.0652
      4 C4          2.4029    0.0433   -0.0407 C.ar      1 <0>        -0.1481
      5 C5          1.2068   -0.6714   -0.0095 C.ar      1 <0>        -0.0526
      6 C6          0.0021   -0.0041    0.0020 C.ar      1 <0>        -0.1200
      7 C7          1.2373   -2.1880    0.0499 C.3       1 <0>        -0.0932
      8 C8          1.7490   -2.7325   -1.2791 C.3       1 <0>        -0.1090
      9 C9          3.2678   -2.8226   -1.2961 C.3       1 <0>        -0.1020
     10 C10         3.9643   -1.4870   -1.3645 C.3       1 <0>        -0.1219
     11 H1          3.6046   -0.9361   -2.2335 H         1 <0>         0.1337
     12 C11         3.6815   -0.6855   -0.1089 C.2       1 <0>         0.4223
     13 O1          4.4779   -0.6455    0.8046 O.2       1 <0>        -0.4163
     14 S1          5.7529   -1.7488   -1.5165 S.3       1 <0>         0.0606
     15 C12         6.4043   -0.1260   -1.7325 C.2       1 <0>         0.2129
     16 N1          5.7163    0.9947   -1.7635 N.2       1 <0>        -0.3377
     17 N2          6.4987    1.9982   -1.9364 N.2       1 <0>        -0.0317
     18 N3          7.7220    1.6022   -2.0272 N.2       1 <0>        -0.0716
     19 N4          7.7081    0.2029   -1.8919 N.pl3     1 <0>        -0.3504
     20 C13         8.8574   -0.7050   -1.9201 C.3       1 <0>         0.1437
     21 C14         9.8722   -0.3070   -0.8284 C.3       1 <0>        -0.1325
     22 C15        11.2530   -0.5641   -1.4814 C.3       1 <0>        -0.1211
     23 C16        11.0263   -0.1178   -2.9472 C.3       1 <0>        -0.1227
     24 C17         9.5912   -0.5848   -3.2672 C.3       1 <0>        -0.1316
     25 H2         -0.9612    1.9047    0.0260 H         1 <0>         0.1278
     26 H3          1.1416    3.1781    0.0188 H         1 <0>         0.1298
     27 H4          3.3030    2.0004   -0.0390 H         1 <0>         0.1310
     28 H5         -0.9247   -0.5586    0.0055 H         1 <0>         0.1309
     29 H6          1.9004   -2.5076    0.8538 H         1 <0>         0.0780
     30 H7          0.2316   -2.5654    0.2349 H         1 <0>         0.0871
     31 H8          1.3313   -3.7261   -1.4417 H         1 <0>         0.0874
     32 H9          1.4221   -2.0738   -2.0837 H         1 <0>         0.0767
     33 H10         3.5946   -3.3382   -0.3931 H         1 <0>         0.0805
     34 H11         3.5703   -3.4160   -2.1589 H         1 <0>         0.0921
     35 H12         8.5257   -1.7318   -1.7659 H         1 <0>         0.1167
     36 H13         9.7621    0.7465   -0.5711 H         1 <0>         0.0852
     37 H14         9.7460   -0.9318    0.0558 H         1 <0>         0.0823
     38 H15        12.0236    0.0437   -1.0074 H         1 <0>         0.0790
     39 H16        11.5111   -1.6221   -1.4352 H         1 <0>         0.0758
     40 H17        11.1026    0.9662   -3.0321 H         1 <0>         0.0742
     41 H18        11.7424   -0.6046   -3.6093 H         1 <0>         0.0763
     42 H19         9.6164   -1.5534   -3.7665 H         1 <0>         0.0861
     43 H20         9.0922    0.1491   -3.9000 H         1 <0>         0.0785
@<TRIPOS>BOND
     1    1    6 ar
     2    1    2 ar
     3    1   25 1
     4    2    3 ar
     5    2   26 1
     6    3    4 ar
     7    3   27 1
     8    4   12 1
     9    4    5 ar
    10    5    6 ar
    11    5    7 1
    12    6   28 1
    13    7    8 1
    14    7   29 1
    15    7   30 1
    16    8    9 1
    17    8   31 1
    18    8   32 1
    19    9   10 1
    20    9   33 1
    21    9   34 1
    22   10   11 1
    23   10   12 1
    24   10   14 1
    25   12   13 2
    26   14   15 1
    27   15   19 1
    28   15   16 2
    29   16   17 1
    30   17   18 2
    31   18   19 1
    32   19   20 1
    33   20   24 1
    34   20   21 1
    35   20   35 1
    36   21   22 1
    37   21   36 1
    38   21   37 1
    39   22   23 1
    40   22   38 1
    41   22   39 1
    42   23   24 1
    43   23   40 1
    44   23   41 1
    45   24   42 1
    46   24   43 1
@<TRIPOS>MOLECULE
ZINC20630237
   46    48     0     0     0
SMALL
USER_CHARGES
1-[[(2R,6S)-2,6-dimethylmorpholin-4-yl]methyl]-4-(3,4-dimethylphenyl)tetrazole-5-thione
@<TRIPOS>ATOM
      1 C1         -0.9495   -9.2781   -2.3831 C.3       1 <0>        -0.1206
      2 C2         -1.0153   -7.9122   -1.7500 C.ar      1 <0>        -0.0656
      3 C3         -1.7449   -6.9052   -2.3556 C.ar      1 <0>        -0.0995
      4 C4         -1.8121   -5.6543   -1.7748 C.ar      1 <0>        -0.0859
      5 C5         -1.1368   -5.4045   -0.5871 C.ar      1 <0>         0.1214
      6 C6         -0.4053   -6.4175    0.0184 C.ar      1 <0>        -0.0941
      7 C7         -0.3466   -7.6683   -0.5647 C.ar      1 <0>        -0.0754
      8 C8          0.4476   -8.7682    0.0916 C.3       1 <0>        -0.1163
      9 N1         -1.1983   -4.1349    0.0016 N.pl3     1 <0>        -0.3496
     10 C9         -1.2526   -2.9537   -0.6508 C.2       1 <0>         0.4479
     11 S1         -1.2597   -2.7181   -2.3465 S.2       1 <0>        -0.4921
     12 N2         -1.2969   -1.9949    0.2993 N.pl3     1 <0>        -0.3974
     13 N3         -1.2771   -2.6353    1.5443 N.2       1 <0>         0.0380
     14 N4         -1.2208   -3.8587    1.3742 N.2       1 <0>         0.0229
     15 C10        -1.3603   -0.5494    0.0693 C.3       1 <0>         0.3018
     16 N5          0.0021   -0.0041    0.0020 N.3       1 <0>        -0.5543
     17 C11        -0.0179    1.4659    0.0101 C.3       1 <0>         0.0298
     18 C12         1.4204    1.9905   -0.0008 C.3       1 <0>         0.0930
     19 H1          1.9817    1.6410    0.8783 H         1 <0>         0.0675
     20 O1          2.1057    1.4646   -1.1406 O.3       1 <0>        -0.3855
     21 C13         2.1447    0.0355   -1.1801 C.3       1 <0>         0.0940
     22 H2          2.6926   -0.2773   -0.2790 H         1 <0>         0.0615
     23 C14         0.7138   -0.5089   -1.1812 C.3       1 <0>         0.0205
     24 C15         2.8662   -0.4219   -2.4494 C.3       1 <0>        -0.1441
     25 C16         1.4063    3.5187   -0.0734 C.3       1 <0>        -0.1460
     26 H3         -1.5384   -9.2803   -3.3122 H         1 <0>         0.0705
     27 H4         -1.3596  -10.0249   -1.6873 H         1 <0>         0.0756
     28 H5          0.0975   -9.5261   -2.6119 H         1 <0>         0.0759
     29 H6         -2.2664   -7.0989   -3.2813 H         1 <0>         0.1391
     30 H7         -2.3859   -4.8697   -2.2457 H         1 <0>         0.1532
     31 H8          0.1176   -6.2275    0.9441 H         1 <0>         0.1334
     32 H9          0.9047   -8.3882    1.0172 H         1 <0>         0.0676
     33 H10         1.2372   -9.1095   -0.5940 H         1 <0>         0.0760
     34 H11        -0.2194   -9.6096    0.3306 H         1 <0>         0.0761
     35 H12        -1.8817   -0.3515   -0.8788 H         1 <0>         0.1060
     36 H13        -1.9067   -0.0703    0.8951 H         1 <0>         0.1292
     37 H14        -0.5499    1.8303   -0.8811 H         1 <0>         0.0581
     38 H15        -0.5328    1.8206    0.9151 H         1 <0>         0.0948
     39 H16         0.7376   -1.6083   -1.1534 H         1 <0>         0.0839
     40 H17         0.1936   -0.1764   -2.0916 H         1 <0>         0.0687
     41 H18         2.8955   -1.5211   -2.4786 H         1 <0>         0.0729
     42 H19         3.8931   -0.0276   -2.4497 H         1 <0>         0.0680
     43 H20         2.3287   -0.0459   -3.3324 H         1 <0>         0.0679
     44 H21         2.4399    3.8949   -0.0812 H         1 <0>         0.0698
     45 H22         0.8757    3.9224    0.8015 H         1 <0>         0.0751
     46 H23         0.8931    3.8374   -0.9927 H         1 <0>         0.0664
@<TRIPOS>BOND
     1    1    2 1
     2    1   26 1
     3    1   27 1
     4    1   28 1
     5    2    7 ar
     6    2    3 ar
     7    3    4 ar
     8    3   29 1
     9    4    5 ar
    10    4   30 1
    11    5    6 ar
    12    5    9 1
    13    6    7 ar
    14    6   31 1
    15    7    8 1
    16    8   32 1
    17    8   33 1
    18    8   34 1
    19    9   14 1
    20    9   10 1
    21   10   11 2
    22   10   12 1
    23   12   13 1
    24   12   15 1
    25   13   14 2
    26   15   16 1
    27   15   35 1
    28   15   36 1
    29   16   23 1
    30   16   17 1
    31   17   18 1
    32   17   37 1
    33   17   38 1
    34   18   19 1
    35   18   20 1
    36   18   25 1
    37   20   21 1
    38   21   22 1
    39   21   23 1
    40   21   24 1
    41   23   39 1
    42   23   40 1
    43   24   41 1
    44   24   42 1
    45   24   43 1
    46   25   44 1
    47   25   45 1
    48   25   46 1
@<TRIPOS>MOLECULE
ZINC02883047
   40    42     0     0     0
SMALL
USER_CHARGES

@<TRIPOS>ATOM
      1 C1          0.0794    1.1672   -0.4920 C.3       1 <0>         0.0321
      2 O1          0.0967   -0.2582   -0.3922 O.3       1 <0>        -0.3532
      3 C2          0.6839   -0.7861    0.6933 C.2       1 <0>         0.4623
      4 O2          1.1672   -0.0619    1.5310 O.2       1 <0>        -0.4994
      5 C3          0.7403   -2.2819    0.8671 C.3       1 <0>        -0.0781
      6 C4         -0.6823   -2.8450    0.9039 C.3       1 <0>        -0.1295
      7 C5         -0.6204   -4.3691    1.0459 C.3       1 <0>         0.1070
      8 N1          0.1908   -4.7016    2.2248 N.am      1 <0>        -0.6076
      9 C6          1.5432   -4.1378    2.3337 C.3       1 <0>         0.1146
     10 C7          1.4571   -2.6163    2.1773 C.3       1 <0>        -0.1221
     11 C8         -0.2965   -5.5082    3.1884 C.2       1 <0>         0.5846
     12 O3          0.4168   -5.8528    4.1112 O.2       1 <0>        -0.5086
     13 C9         -1.6926   -5.9724    3.1238 C.2       1 <0>        -0.2509
     14 C10        -2.0621   -7.0377    2.3139 C.2       1 <0>         0.0335
     15 C11        -3.4315   -7.4069    2.2802 C.ar      1 <0>        -0.1596
     16 C12        -3.8344   -8.5899    1.6437 C.ar      1 <0>        -0.0470
     17 C13        -5.1506   -8.9525    1.6562 C.ar      1 <0>        -0.1403
     18 C14        -6.0965   -8.1562    2.2873 C.ar      1 <0>        -0.0545
     19 C15        -5.7257   -6.9785    2.9025 C.ar      1 <0>        -0.1336
     20 C16        -4.3940   -6.5857    2.8967 C.ar      1 <0>         0.1447
     21 O4         -4.0236   -5.4107    3.4600 O.3       1 <0>        -0.2704
     22 C17        -2.7520   -5.3281    3.9212 C.2       1 <0>         0.5270
     23 O5         -2.4919   -4.7404    4.9544 O.2       1 <0>        -0.4184
     24 H1          1.1024    1.5432   -0.5004 H         1 <0>         0.0614
     25 H2         -0.4232    1.4609   -1.4135 H         1 <0>         0.1037
     26 H3         -0.4542    1.5847    0.3619 H         1 <0>         0.0612
     27 H4          1.2842   -2.7242    0.0325 H         1 <0>         0.1154
     28 H5         -1.2191   -2.4220    1.7530 H         1 <0>         0.0757
     29 H6         -1.1999   -2.5864   -0.0198 H         1 <0>         0.0957
     30 H7         -1.6279   -4.7655    1.1720 H         1 <0>         0.0889
     31 H8         -0.1645   -4.8008    0.1549 H         1 <0>         0.0837
     32 H9          1.9633   -4.3816    3.3095 H         1 <0>         0.1035
     33 H10         2.1756   -4.5507    1.5478 H         1 <0>         0.0781
     34 H11         2.4622   -2.1949    2.1599 H         1 <0>         0.0913
     35 H12         0.9001   -2.1954    3.0144 H         1 <0>         0.0800
     36 H13        -1.3285   -7.5697    1.7263 H         1 <0>         0.1580
     37 H14        -3.1059   -9.2119    1.1449 H         1 <0>         0.1423
     38 H15        -5.4586   -9.8666    1.1705 H         1 <0>         0.1385
     39 H16        -7.1324   -8.4614    2.2965 H         1 <0>         0.1432
     40 H17        -6.4693   -6.3636    3.3875 H         1 <0>         0.1469
@<TRIPOS>BOND
     1    1    2 1
     2    1   24 1
     3    1   25 1
     4    1   26 1
     5    2    3 1
     6    3    4 2
     7    3    5 1
     8    5   10 1
     9    5    6 1
    10    5   27 1
    11    6    7 1
    12    6   28 1
    13    6   29 1
    14    7    8 1
    15    7   30 1
    16    7   31 1
    17    8    9 1
    18    8   11 am
    19    9   10 1
    20    9   32 1
    21    9   33 1
    22   10   34 1
    23   10   35 1
    24   11   12 2
    25   11   13 1
    26   13   22 1
    27   13   14 2
    28   14   15 1
    29   14   36 1
    30   15   20 ar
    31   15   16 ar
    32   16   17 ar
    33   16   37 1
    34   17   18 ar
    35   17   38 1
    36   18   19 ar
    37   18   39 1
    38   19   20 ar
    39   19   40 1
    40   20   21 1
    41   21   22 1
    42   22   23 2
@<TRIPOS>MOLECULE
ZINC48637951
   27    28     0     0     0
SMALL
USER_CHARGES

@<TRIPOS>ATOM
      1 C1         -0.0162    1.3459    0.0094 C.2       1 <0>         0.1066
      2 C2          1.2673    1.7757   -0.0005 C.2       1 <0>        -0.1974
      3 C3          2.0979    0.6499   -0.0145 C.2       1 <0>         0.1396
      4 N1          1.3405   -0.4171   -0.0130 N.2       1 <0>        -0.1768
      5 N2          0.0021   -0.0041    0.0020 N.pl3     1 <0>        -0.3226
      6 C4         -1.1707   -0.8820    0.0085 C.3       1 <0>         0.3010
      7 N3         -1.5036   -1.2646   -1.3702 N.3       1 <0>        -0.5688
      8 C5         -1.8939   -0.0945   -2.1600 C.3       1 <0>         0.0470
      9 C6         -1.7889   -0.4179   -3.6549 C.3       1 <0>        -0.0764
     10 S1         -2.9346   -1.7817   -4.0276 S.3       1 <0>        -0.2581
     11 C7         -2.5146   -3.0165   -2.7585 C.3       1 <0>        -0.0785
     12 C8         -2.5162   -2.3227   -1.3913 C.3       1 <0>         0.0630
     13 N4          3.5780    0.6635   -0.0290 N.pl3     1 <0>         0.0558
     14 O1          4.1729    1.7160   -0.0294 O.2       1 <0>        -0.1039
     15 O2          4.1920   -0.3779   -0.0404 O.3       1 <0>        -0.1200
     16 Br1         1.8370    3.5789    0.0028 Br        1 <0>         0.0377
     17 H1         -0.8970    1.9708    0.0252 H         1 <0>         0.2075
     18 H2         -0.9516   -1.7768    0.5911 H         1 <0>         0.1273
     19 H3         -2.0155   -0.3564    0.4537 H         1 <0>         0.0959
     20 H4         -2.9214    0.1784   -1.9197 H         1 <0>         0.0625
     21 H5         -1.2336    0.7396   -1.9225 H         1 <0>         0.0818
     22 H6         -2.0605    0.4604   -4.2406 H         1 <0>         0.1138
     23 H7         -0.7691   -0.7189   -3.8948 H         1 <0>         0.0920
     24 H8         -3.2549   -3.8165   -2.7652 H         1 <0>         0.1167
     25 H9         -1.5259   -3.4286   -2.9601 H         1 <0>         0.0956
     26 H10        -2.2928   -3.0534   -0.6140 H         1 <0>         0.0960
     27 H11        -3.4985   -1.8878   -1.2068 H         1 <0>         0.0627
@<TRIPOS>BOND
     1    1    5 1
     2    1    2 2
     3    1   17 1
     4    2    3 1
     5    2   16 1
     6    3    4 2
     7    3   13 1
     8    4    5 1
     9    5    6 1
    10    6    7 1
    11    6   18 1
    12    6   19 1
    13    7   12 1
    14    7    8 1
    15    8    9 1
    16    8   20 1
    17    8   21 1
    18    9   10 1
    19    9   22 1
    20    9   23 1
    21   10   11 1
    22   11   12 1
    23   11   24 1
    24   11   25 1
    25   12   26 1
    26   12   27 1
    27   13   14 2
    28   13   15 1
@<TRIPOS>MOLECULE
ZINC35378266
   49    51     0     0     0
SMALL
USER_CHARGES

@<TRIPOS>ATOM
      1 C1         -0.2722    1.4926   -0.1186 C.3       1 <0>        -0.1532
      2 C2         -0.1414   -0.0313   -0.0824 C.3       1 <0>        -0.1315
      3 C3          0.7195   -0.4974   -1.2583 C.3       1 <0>         0.0998
      4 H1          1.6755    0.0258   -1.2384 H         1 <0>         0.1419
      5 C4          0.9567   -1.9816   -1.1499 C.2       1 <0>         0.5108
      6 O1          0.2749   -2.7531   -1.7909 O.2       1 <0>        -0.5285
      7 N1          1.9266   -2.4518   -0.3407 N.am      1 <0>        -0.6008
      8 C5          2.6822   -1.5407    0.5298 C.3       1 <0>         0.0983
      9 C6          4.1790   -1.7405    0.2720 C.3       1 <0>        -0.1336
     10 C7          4.5308   -3.2189    0.4531 C.3       1 <0>        -0.0929
     11 C8          3.7498   -4.0587   -0.5603 C.3       1 <0>        -0.1312
     12 C9          2.2443   -3.8859   -0.3078 C.3       1 <0>         0.1107
     13 C10         6.0315   -3.4167    0.2303 C.3       1 <0>        -0.1487
     14 N2          0.0282   -0.2039   -2.5161 N.am      1 <0>        -0.5210
     15 C11        -1.1912   -0.7456   -2.7608 C.2       1 <0>         0.4259
     16 N3         -1.8493   -0.5175   -3.8625 N.2       1 <0>        -0.5096
     17 C12        -1.3495    0.2743   -4.8232 C.2       1 <0>         0.2874
     18 C13        -0.0959    0.8634   -4.6308 C.2       1 <0>        -0.2979
     19 C14         0.6049    0.6114   -3.4292 C.2       1 <0>         0.5683
     20 O2          1.6979    1.1102   -3.2236 O.2       1 <0>        -0.5203
     21 C15         0.1627    1.6526   -5.8348 C.2       1 <0>        -0.1054
     22 C16        -0.9095    1.4845   -6.6248 C.2       1 <0>        -0.0038
     23 O3         -1.7974    0.6717   -6.0243 O.3       1 <0>        -0.1558
     24 C17        -1.0918    2.1135   -7.9821 C.3       1 <0>        -0.0719
     25 C18         1.3841    2.4850   -6.1286 C.3       1 <0>        -0.0845
     26 H2          0.7173    1.9441   -0.0459 H         1 <0>         0.0644
     27 H3         -0.7415    1.7949   -1.0548 H         1 <0>         0.0534
     28 H4         -0.8855    1.8247    0.7190 H         1 <0>         0.0710
     29 H5          0.3279   -0.3336    0.8538 H         1 <0>         0.0950
     30 H6         -1.1309   -0.4827   -0.1552 H         1 <0>         0.0823
     31 H7          2.4073   -0.5099    0.3063 H         1 <0>         0.0873
     32 H8          2.4582   -1.7627    1.5732 H         1 <0>         0.0804
     33 H9          4.4172   -1.4319   -0.7458 H         1 <0>         0.0703
     34 H10         4.7530   -1.1408    0.9784 H         1 <0>         0.0812
     35 H11         4.2693   -3.5333    1.4635 H         1 <0>         0.0745
     36 H12         3.9921   -3.7282   -1.5703 H         1 <0>         0.0676
     37 H13         4.0183   -5.1089   -0.4464 H         1 <0>         0.0792
     38 H14         1.9854   -4.2952    0.6687 H         1 <0>         0.0740
     39 H15         1.6805   -4.4029   -1.0842 H         1 <0>         0.0950
     40 H16         6.5879   -2.8196    0.9527 H         1 <0>         0.0573
     41 H17         6.2822   -4.4696    0.3592 H         1 <0>         0.0571
     42 H18         6.2934   -3.1019   -0.7799 H         1 <0>         0.0550
     43 H19        -1.6330   -1.3899   -2.0151 H         1 <0>         0.2175
     44 H20        -0.6858    1.4514   -8.7469 H         1 <0>         0.0867
     45 H21        -2.1536    2.2752   -8.1679 H         1 <0>         0.0818
     46 H22        -0.5679    3.0688   -8.0132 H         1 <0>         0.0950
     47 H23         2.1283    1.8715   -6.6365 H         1 <0>         0.0733
     48 H24         1.1073    3.3236   -6.7674 H         1 <0>         0.0711
     49 H25         1.8003    2.8618   -5.1943 H         1 <0>         0.0770
@<TRIPOS>BOND
     1    1    2 1
     2    1   26 1
     3    1   27 1
     4    1   28 1
     5    2    3 1
     6    2   29 1
     7    2   30 1
     8    3    4 1
     9    3    5 1
    10    3   14 1
    11    5    6 2
    12    5    7 am
    13    7   12 1
    14    7    8 1
    15    8    9 1
    16    8   31 1
    17    8   32 1
    18    9   10 1
    19    9   33 1
    20    9   34 1
    21   10   11 1
    22   10   13 1
    23   10   35 1
    24   11   12 1
    25   11   36 1
    26   11   37 1
    27   12   38 1
    28   12   39 1
    29   13   40 1
    30   13   41 1
    31   13   42 1
    32   14   19 am
    33   14   15 1
    34   15   16 2
    35   15   43 1
    36   16   17 1
    37   17   23 1
    38   17   18 2
    39   18   19 1
    40   18   21 1
    41   19   20 2
    42   21   22 2
    43   21   25 1
    44   22   23 1
    45   22   24 1
    46   24   44 1
    47   24   45 1
    48   24   46 1
    49   25   47 1
    50   25   48 1
    51   25   49 1
@<TRIPOS>MOLECULE
ZINC67521072
   44    46     0     0     0
SMALL
USER_CHARGES

@<TRIPOS>ATOM
      1 C1          1.5687    1.3050   -0.7227 C.3       1 <0>        -0.1518
      2 C2          1.4753   -0.2183   -0.8308 C.3       1 <0>         0.0540
      3 O1          0.4398   -0.6944    0.0311 O.3       1 <0>        -0.3766
      4 C3          0.2686   -2.1129    0.0055 C.3       1 <0>         0.0783
      5 H1          1.2235   -2.5907   -0.2136 H         1 <0>         0.0657
      6 C4         -0.2411   -2.5906    1.3671 C.3       1 <0>        -0.1180
      7 C5         -0.3935   -4.1133    1.3512 C.3       1 <0>        -0.1308
      8 C6         -1.4200   -4.5086    0.2849 C.3       1 <0>         0.0926
      9 N1         -1.0117   -3.9294   -1.0022 N.am      1 <0>        -0.6008
     10 C7         -0.7497   -2.4856   -1.0766 C.3       1 <0>         0.0932
     11 C8         -0.8794   -4.7080   -2.0944 C.2       1 <0>         0.6137
     12 O2         -0.6162   -4.2059   -3.1713 O.2       1 <0>        -0.5144
     13 C9         -1.0525   -6.1599   -1.9852 C.2       1 <0>        -0.2470
     14 C10        -0.2664   -7.1517   -2.4941 C.2       1 <0>         0.0223
     15 C11        -0.6065   -8.4889   -2.2770 C.2       1 <0>        -0.2531
     16 C12        -1.7798   -8.7106   -1.5203 C.2       1 <0>         0.1101
     17 S1         -2.3400   -7.0682   -1.1467 S.3       1 <0>         0.1963
     18 N2         -2.2127   -9.9336   -1.2422 N.2       1 <0>        -0.4979
     19 C13        -1.5752  -10.9954   -1.6544 C.2       1 <0>         0.4019
     20 N3         -0.4379  -10.9091   -2.3874 N.am      1 <0>        -0.5350
     21 C14         0.0887   -9.7163   -2.7270 C.2       1 <0>         0.5552
     22 O3          1.1107   -9.6495   -3.3866 O.2       1 <0>        -0.5020
     23 C15         0.2317  -12.1382   -2.8199 C.3       1 <0>         0.0612
     24 C16         0.9661   -6.8054   -3.2893 C.3       1 <0>        -0.1235
     25 H2          2.3586    1.6682   -1.3802 H         1 <0>         0.0722
     26 H3          0.6178    1.7491   -1.0174 H         1 <0>         0.0640
     27 H4          1.7960    1.5830    0.3064 H         1 <0>         0.0632
     28 H5          1.2480   -0.4963   -1.8599 H         1 <0>         0.0509
     29 H6          2.4262   -0.6624   -0.5361 H         1 <0>         0.0496
     30 H7          0.4705   -2.3050    2.1418 H         1 <0>         0.0769
     31 H8         -1.2075   -2.1311    1.5747 H         1 <0>         0.0769
     32 H9          0.5673   -4.5727    1.1192 H         1 <0>         0.0708
     33 H10        -0.7342   -4.4551    2.3285 H         1 <0>         0.0888
     34 H11        -1.4597   -5.5946    0.2007 H         1 <0>         0.0907
     35 H12        -2.4018   -4.1254    0.5630 H         1 <0>         0.0815
     36 H13        -1.6770   -1.9374   -0.9101 H         1 <0>         0.0821
     37 H14        -0.3471   -2.2368   -2.0585 H         1 <0>         0.0966
     38 H15        -1.9648  -11.9711   -1.4040 H         1 <0>         0.2199
     39 H16        -0.3271  -13.0023   -2.4604 H         1 <0>         0.0993
     40 H17         0.2781  -12.1629   -3.9087 H         1 <0>         0.0871
     41 H18         1.2424  -12.1640   -2.4126 H         1 <0>         0.0870
     42 H19         1.8207   -6.7236   -2.6177 H         1 <0>         0.0754
     43 H20         1.1555   -7.5873   -4.0247 H         1 <0>         0.0883
     44 H21         0.8134   -5.8550   -3.8006 H         1 <0>         0.0853
@<TRIPOS>BOND
     1    1    2 1
     2    1   25 1
     3    1   26 1
     4    1   27 1
     5    2    3 1
     6    2   28 1
     7    2   29 1
     8    3    4 1
     9    4    5 1
    10    4   10 1
    11    4    6 1
    12    6    7 1
    13    6   30 1
    14    6   31 1
    15    7    8 1
    16    7   32 1
    17    7   33 1
    18    8    9 1
    19    8   34 1
    20    8   35 1
    21    9   10 1
    22    9   11 am
    23   10   36 1
    24   10   37 1
    25   11   12 2
    26   11   13 1
    27   13   17 1
    28   13   14 2
    29   14   15 1
    30   14   24 1
    31   15   21 1
    32   15   16 2
    33   16   17 1
    34   16   18 1
    35   18   19 2
    36   19   20 1
    37   19   38 1
    38   20   21 am
    39   20   23 1
    40   21   22 2
    41   23   39 1
    42   23   40 1
    43   23   41 1
    44   24   42 1
    45   24   43 1
    46   24   44 1
@<TRIPOS>MOLECULE
ZINC04317965
   33    34     0     0     0
SMALL
USER_CHARGES
8-bromo-7-isobutyl-1,3-dimethyl-purine-2,6-dione
@<TRIPOS>ATOM
      1 C1          0.6061   -0.4987   -1.3138 C.3       1 <0>        -0.1440
      2 C2          0.0021   -0.0041    0.0020 C.3       1 <0>        -0.1074
      3 C3          0.8475   -0.5091    1.1729 C.3       1 <0>        -0.1595
      4 C4         -0.0187    1.5258    0.0104 C.3       1 <0>         0.0945
      5 N1         -0.7044    1.9982    1.2158 N.pl3     1 <0>        -0.3795
      6 C5         -2.0553    2.2585    1.3446 C.2       1 <0>        -0.1308
      7 C6         -2.2474    2.6778    2.6553 C.2       1 <0>         0.3216
      8 N2         -1.0536    2.6680    3.2536 N.2       1 <0>        -0.4601
      9 C7         -0.1364    2.2673    2.4086 C.2       1 <0>         0.2636
     10 Br1         1.7048    2.0917    2.8023 Br        1 <0>         0.1023
     11 N3         -3.5273    3.0069    3.0712 N.am      1 <0>        -0.5092
     12 C8         -4.5584    2.9285    2.2089 C.2       1 <0>         0.7080
     13 O1         -5.6741    3.2259    2.5904 O.2       1 <0>        -0.5271
     14 N4         -4.3869    2.5213    0.9394 N.am      1 <0>        -0.5505
     15 C9         -3.1653    2.1824    0.4774 C.2       1 <0>         0.5960
     16 O2         -3.0227    1.8145   -0.6750 O.2       1 <0>        -0.5038
     17 C10        -5.5439    2.4439    0.0440 C.3       1 <0>         0.0833
     18 C11        -3.7563    3.4578    4.4462 C.3       1 <0>         0.0877
     19 H1          1.6239   -0.1210   -1.4111 H         1 <0>         0.0616
     20 H2          0.6208   -1.5886   -1.3198 H         1 <0>         0.0671
     21 H3          0.0037   -0.1389   -2.1480 H         1 <0>         0.0629
     22 H4         -1.0158   -0.3818    0.0993 H         1 <0>         0.0811
     23 H5          0.4173   -0.1567    2.1104 H         1 <0>         0.0516
     24 H6          0.8623   -1.5990    1.1669 H         1 <0>         0.0669
     25 H7          1.8654   -0.1314    1.0757 H         1 <0>         0.0654
     26 H8          1.0039    1.9031    0.0027 H         1 <0>         0.1067
     27 H9         -0.5459    1.8868   -0.8726 H         1 <0>         0.1159
     28 H10        -5.9907    1.4521    0.1126 H         1 <0>         0.0781
     29 H11        -6.2790    3.1945    0.3345 H         1 <0>         0.0979
     30 H12        -5.2227    2.6276   -0.9813 H         1 <0>         0.0960
     31 H13        -3.6583    4.5423    4.4940 H         1 <0>         0.0751
     32 H14        -4.7593    3.1694    4.7607 H         1 <0>         0.0956
     33 H15        -3.0219    2.9970    5.1067 H         1 <0>         0.0933
@<TRIPOS>BOND
     1    1    2 1
     2    1   19 1
     3    1   20 1
     4    1   21 1
     5    2    3 1
     6    2    4 1
     7    2   22 1
     8    3   23 1
     9    3   24 1
    10    3   25 1
    11    4    5 1
    12    4   26 1
    13    4   27 1
    14    5    9 1
    15    5    6 1
    16    6   15 1
    17    6    7 2
    18    7    8 1
    19    7   11 1
    20    8    9 2
    21    9   10 1
    22   11   12 am
    23   11   18 1
    24   12   13 2
    25   12   14 am
    26   14   15 am
    27   14   17 1
    28   15   16 2
    29   17   28 1
    30   17   29 1
    31   17   30 1
    32   18   31 1
    33   18   32 1
    34   18   33 1
@<TRIPOS>MOLECULE
ZINC37555254
   34    36     0     0     0
SMALL
USER_CHARGES

@<TRIPOS>ATOM
      1 C1         -0.0187    1.5258    0.0104 C.3       1 <0>        -0.1470
      2 C2          0.0021   -0.0041    0.0020 C.3       1 <0>         0.0777
      3 H1         -1.0202   -0.3821    0.0097 H         1 <0>         0.0687
      4 C3          0.7217   -0.4995   -1.2576 C.3       1 <0>         0.0848
      5 N1          0.8936   -1.9570   -1.1510 N.pl3     1 <0>        -0.9958
      6 C4          1.4828   -2.4954    0.0852 C.3       1 <0>         0.0793
      7 C5          0.7262   -1.9027    1.2795 C.3       1 <0>         0.0535
      8 O1          0.6954   -0.4786    1.1587 O.3       1 <0>        -0.3720
      9 S1          0.4379   -2.9617   -2.3860 S.o2      1 <0>         2.7149
     10 O2          0.1987   -4.2364   -1.8053 O.2       1 <0>        -0.9489
     11 O3         -0.5522   -2.2662   -3.1311 O.2       1 <0>        -0.9208
     12 C6          1.8311   -3.1459   -3.4488 C.2       1 <0>        -0.6381
     13 C7          2.1410   -2.3655   -4.5088 C.2       1 <0>         0.2197
     14 N2          3.2686   -2.8227   -5.0592 N.2       1 <0>        -0.4836
     15 C8          3.6893   -3.8787   -4.3766 C.2       1 <0>         0.2778
     16 N3          2.8059   -4.1023   -3.3527 N.pl3     1 <0>        -0.3044
     17 C9          3.0032   -5.1348   -2.4825 C.2       1 <0>         0.0560
     18 C10         4.0712   -5.9495   -2.6135 C.2       1 <0>        -0.1289
     19 C11         4.9962   -5.7439   -3.6503 C.2       1 <0>        -0.0713
     20 C12         4.8069   -4.7232   -4.5297 C.2       1 <0>        -0.0896
     21 Cl1         1.2256   -0.9981   -5.0619 Cl        1 <0>         0.0389
     22 H2          1.0039    1.9031    0.0027 H         1 <0>         0.0677
     23 H3         -0.5459    1.8868   -0.8726 H         1 <0>         0.0777
     24 H4         -0.5289    1.8773    0.9072 H         1 <0>         0.0711
     25 H5          0.1243   -0.2637   -2.1384 H         1 <0>         0.1067
     26 H6          1.6972   -0.0195   -1.3359 H         1 <0>         0.0823
     27 H7          1.3895   -3.5813    0.0938 H         1 <0>         0.1014
     28 H8          2.5350   -2.2163    0.1422 H         1 <0>         0.0803
     29 H9         -0.2932   -2.2884    1.2923 H         1 <0>         0.0606
     30 H10         1.2323   -2.1788    2.2045 H         1 <0>         0.1112
     31 H11         2.2984   -5.3014   -1.6813 H         1 <0>         0.1831
     32 H12         4.2154   -6.7630   -1.9179 H         1 <0>         0.1663
     33 H13         5.8505   -6.3967   -3.7527 H         1 <0>         0.1568
     34 H14         5.5122   -4.5550   -5.3301 H         1 <0>         0.1638
@<TRIPOS>BOND
     1    1    2 1
     2    1   22 1
     3    1   23 1
     4    1   24 1
     5    2    3 1
     6    2    8 1
     7    2    4 1
     8    4    5 1
     9    4   25 1
    10    4   26 1
    11    5    6 1
    12    5    9 1
    13    6    7 1
    14    6   27 1
    15    6   28 1
    16    7    8 1
    17    7   29 1
    18    7   30 1
    19    9   10 2
    20    9   11 2
    21    9   12 1
    22   12   16 1
    23   12   13 2
    24   13   14 1
    25   13   21 1
    26   14   15 2
    27   15   20 1
    28   15   16 1
    29   16   17 1
    30   17   18 2
    31   17   31 1
    32   18   19 1
    33   18   32 1
    34   19   20 2
    35   19   33 1
    36   20   34 1
@<TRIPOS>MOLECULE
ZINC39934121
   43    45     0     0     0
SMALL
USER_CHARGES

@<TRIPOS>ATOM
      1 C1         -0.0184    1.5028    0.0103 C.3       1 <0>        -0.1806
      2 C2          0.0021   -0.0041    0.0020 C.2       1 <0>         0.2967
      3 O1          1.0609   -0.5963   -0.0113 O.2       1 <0>        -0.4650
      4 S1         -1.4241   -0.8535    0.0111 S.3       1 <0>        -0.0744
      5 C3         -0.9005   -2.5903   -0.0033 C.3       1 <0>        -0.0968
      6 C4         -2.1343   -3.4950    0.0037 C.3       1 <0>         0.1147
      7 H1         -2.7664   -3.2375    0.8535 H         1 <0>         0.1055
      8 C5         -1.6970   -4.9387    0.1230 C.3       1 <0>         0.0274
      9 H2         -1.1904   -5.0924    1.0758 H         1 <0>         0.1001
     10 C6         -2.8770   -5.9165   -0.0016 C.3       1 <0>         0.0478
     11 H3         -3.4379   -5.9995    0.9293 H         1 <0>         0.1313
     12 C7         -3.7854   -5.5734   -1.1861 C.3       1 <0>         0.0120
     13 H4         -3.4090   -5.9940   -2.1186 H         1 <0>         0.1359
     14 C8         -4.0411   -4.0630   -1.3024 C.3       1 <0>         0.2271
     15 H5         -4.5221   -3.8466   -2.2562 H         1 <0>         0.1315
     16 O2         -2.8666   -3.3048   -1.2048 O.3       1 <0>        -0.3182
     17 O3         -4.9676   -3.8198   -0.2295 O.3       1 <0>        -0.3830
     18 C9         -5.8167   -4.9850   -0.2329 C.3       1 <0>         0.2459
     19 O4         -5.1033   -6.0842   -0.8509 O.3       1 <0>        -0.3602
     20 C10        -7.0904   -4.6906   -1.0279 C.3       1 <0>        -0.1691
     21 C11        -6.1857   -5.3565    1.2046 C.3       1 <0>        -0.1565
     22 O5         -2.1955   -7.1538   -0.3434 O.3       1 <0>        -0.3626
     23 C12        -0.9506   -6.7875   -0.9568 C.3       1 <0>         0.2421
     24 O6         -0.8392   -5.3505   -0.9556 O.3       1 <0>        -0.3485
     25 C13         0.2102   -7.3953   -0.1670 C.3       1 <0>        -0.1696
     26 C14        -0.9153   -7.3041   -2.3966 C.3       1 <0>        -0.1560
     27 H6          1.0042    1.8801    0.0026 H         1 <0>         0.0934
     28 H7         -0.5455    1.8639   -0.8728 H         1 <0>         0.0997
     29 H8         -0.5286    1.8543    0.9071 H         1 <0>         0.0992
     30 H9         -0.3122   -2.7850   -0.9000 H         1 <0>         0.1149
     31 H10        -0.2952   -2.7946    0.8799 H         1 <0>         0.1142
     32 H11        -6.8256   -4.4067   -2.0464 H         1 <0>         0.0655
     33 H12        -7.7185   -5.5812   -1.0506 H         1 <0>         0.0801
     34 H13        -7.6346   -3.8743   -0.5529 H         1 <0>         0.0812
     35 H14        -6.7369   -4.5350    1.6622 H         1 <0>         0.0805
     36 H15        -6.8063   -6.2526    1.2004 H         1 <0>         0.0833
     37 H16        -5.2768   -5.5467    1.7755 H         1 <0>         0.0647
     38 H17         0.1159   -8.4812   -0.1601 H         1 <0>         0.0783
     39 H18         1.1540   -7.1156   -0.6351 H         1 <0>         0.0793
     40 H19         0.1878   -7.0222    0.8569 H         1 <0>         0.0633
     41 H20        -1.7391   -6.8660   -2.9601 H         1 <0>         0.0657
     42 H21         0.0310   -7.0246   -2.8597 H         1 <0>         0.0785
     43 H22        -1.0126   -8.3897   -2.3955 H         1 <0>         0.0809
@<TRIPOS>BOND
     1    1    2 1
     2    1   27 1
     3    1   28 1
     4    1   29 1
     5    2    3 2
     6    2    4 1
     7    4    5 1
     8    5    6 1
     9    5   30 1
    10    5   31 1
    11    6    7 1
    12    6   16 1
    13    6    8 1
    14    8    9 1
    15    8   24 1
    16    8   10 1
    17   10   11 1
    18   10   12 1
    19   10   22 1
    20   12   13 1
    21   12   19 1
    22   12   14 1
    23   14   15 1
    24   14   16 1
    25   14   17 1
    26   17   18 1
    27   18   19 1
    28   18   20 1
    29   18   21 1
    30   20   32 1
    31   20   33 1
    32   20   34 1
    33   21   35 1
    34   21   36 1
    35   21   37 1
    36   22   23 1
    37   23   24 1
    38   23   25 1
    39   23   26 1
    40   25   38 1
    41   25   39 1
    42   25   40 1
    43   26   41 1
    44   26   42 1
    45   26   43 1
@<TRIPOS>MOLECULE
ZINC50456049
   22    23     0     0     0
SMALL
USER_CHARGES

@<TRIPOS>ATOM
      1 C1         -0.0184    1.5028    0.0103 C.3       1 <0>        -0.0821
      2 C2          0.0021   -0.0041    0.0020 C.2       1 <0>         0.0638
      3 C3          0.0059   -0.7053   -1.1577 C.2       1 <0>        -0.2473
      4 S1          0.0324   -2.3785   -0.5353 S.3       1 <0>         0.2563
      5 C4          0.0358   -2.0158    1.1081 C.2       1 <0>        -0.0644
      6 N1          0.0227   -0.6995    1.1244 N.2       1 <0>        -0.4710
      7 S2          0.0575   -3.1276    2.4749 S.3       1 <0>         0.2854
      8 C5          0.0758   -4.7227    1.7265 C.ar      1 <0>         0.1808
      9 C6          0.0895   -5.8752    2.5140 C.ar      1 <0>        -0.1204
     10 C7          0.1036   -7.1034    1.8789 C.ar      1 <0>         0.2913
     11 N2          0.1036   -7.1458    0.5526 N.ar      1 <0>        -0.4960
     12 C8          0.0904   -6.0385   -0.1617 C.ar      1 <0>         0.3810
     13 N3          0.0712   -4.8478    0.4018 N.ar      1 <0>        -0.5100
     14 Cl1         0.1216   -8.5715    2.8052 Cl        1 <0>         0.0460
     15 N4          0.0894   -5.7847    3.9915 N.pl3     1 <0>         0.0221
     16 O1         -0.9575   -5.7598    4.5956 O.2       1 <0>        -0.1028
     17 O2          1.1363   -5.7358    4.5942 O.3       1 <0>        -0.1031
     18 H1          1.0042    1.8801    0.0026 H         1 <0>         0.0780
     19 H2         -0.5455    1.8639   -0.8728 H         1 <0>         0.0790
     20 H3         -0.5286    1.8543    0.9071 H         1 <0>         0.0770
     21 H4         -0.0043   -0.3499   -2.1774 H         1 <0>         0.2009
     22 H5          0.0909   -6.1092   -1.2394 H         1 <0>         0.2354
@<TRIPOS>BOND
     1    1    2 1
     2    1   18 1
     3    1   19 1
     4    1   20 1
     5    2    6 1
     6    2    3 2
     7    3    4 1
     8    3   21 1
     9    4    5 1
    10    5    6 2
    11    5    7 1
    12    7    8 1
    13    8   13 ar
    14    8    9 ar
    15    9   10 ar
    16    9   15 1
    17   10   11 ar
    18   10   14 1
    19   11   12 ar
    20   12   13 ar
    21   12   22 1
    22   15   16 2
    23   15   17 1
@<TRIPOS>MOLECULE
ZINC67348202
   25    26     0     0     0
SMALL
USER_CHARGES

@<TRIPOS>ATOM
      1 C1         -0.0187    1.5258    0.0104 C.3       1 <0>        -0.1645
      2 C2          0.0021   -0.0041    0.0020 C.3       1 <0>         0.1412
      3 C3         -1.4333   -0.5336    0.0129 C.3       1 <0>        -0.1647
      4 N1          0.6878   -0.4765   -1.2033 N.pl3     1 <0>        -0.3495
      5 C4          1.7991   -1.2467   -1.2681 C.2       1 <0>         0.1717
      6 N2          2.0683   -1.4309   -2.5419 N.2       1 <0>        -0.2731
      7 N3          1.2031   -0.8298   -3.2762 N.2       1 <0>        -0.0403
      8 N4          0.3291   -0.2323   -2.5405 N.2       1 <0>        -0.0672
      9 S1          2.7130   -1.8827    0.0975 S.3       1 <0>         0.2801
     10 C5          4.0241   -2.7900   -0.6525 C.ar      1 <0>         0.2715
     11 N5          4.1047   -2.8366   -1.9742 N.ar      1 <0>        -0.4637
     12 C6          5.0763   -3.5082   -2.5693 C.ar      1 <0>         0.1997
     13 C7          6.0169   -4.1679   -1.7921 C.ar      1 <0>        -0.2049
     14 C8          5.9024   -4.0981   -0.4116 C.ar      1 <0>         0.1969
     15 N6          4.9089   -3.4047    0.1189 N.ar      1 <0>        -0.4856
     16 Br1         7.4240   -5.1416   -2.5970 Br        1 <0>        -0.0019
     17 H1          1.0039    1.9031    0.0027 H         1 <0>         0.0669
     18 H2         -0.5459    1.8868   -0.8726 H         1 <0>         0.0773
     19 H3         -0.5289    1.8773    0.9072 H         1 <0>         0.0899
     20 H4          0.5293   -0.3651    0.8851 H         1 <0>         0.1117
     21 H5         -1.9605   -0.1726   -0.8702 H         1 <0>         0.0773
     22 H6         -1.4185   -1.6235    0.0069 H         1 <0>         0.0669
     23 H7         -1.9435   -0.1821    0.9097 H         1 <0>         0.0899
     24 H8          5.1365   -3.5428   -3.6470 H         1 <0>         0.1862
     25 H9          6.6181   -4.6004    0.2224 H         1 <0>         0.1884
@<TRIPOS>BOND
     1    1    2 1
     2    1   17 1
     3    1   18 1
     4    1   19 1
     5    2    3 1
     6    2    4 1
     7    2   20 1
     8    3   21 1
     9    3   22 1
    10    3   23 1
    11    4    8 1
    12    4    5 1
    13    5    6 2
    14    5    9 1
    15    6    7 1
    16    7    8 2
    17    9   10 1
    18   10   15 ar
    19   10   11 ar
    20   11   12 ar
    21   12   13 ar
    22   12   24 1
    23   13   14 ar
    24   13   16 1
    25   14   15 ar
    26   14   25 1
@<TRIPOS>MOLECULE
ZINC12193295
   33    34     0     0     0
SMALL
USER_CHARGES
4-(3,4-dichlorophenyl)sulfonyl-3,3-dimethyl-morpholin-2-one
@<TRIPOS>ATOM
      1 C1         -3.4192    0.4969    1.3363 C.3       1 <0>        -0.1632
      2 C2         -2.7884    1.4746    2.3299 C.3       1 <0>         0.1377
      3 C3         -3.8724    2.2222    3.0712 C.2       1 <0>         0.4932
      4 O1         -5.0139    1.8259    3.0727 O.2       1 <0>        -0.4283
      5 O2         -3.5237    3.3485    3.7290 O.3       1 <0>        -0.3689
      6 C4         -2.7913    4.3359    2.9496 C.3       1 <0>         0.0667
      7 C5         -1.5521    3.6736    2.3368 C.3       1 <0>         0.0724
      8 N1         -1.9746    2.4678    1.6068 N.pl3     1 <0>        -0.9943
      9 S1         -1.5547    2.2375    0.0216 S.o2      1 <0>         2.6882
     10 O3         -1.3042    3.5257   -0.5234 O.2       1 <0>        -0.9406
     11 O4         -2.5194    1.3516   -0.5295 O.2       1 <0>        -0.9316
     12 C6         -0.0167    1.3778    0.0096 C.ar      1 <0>        -0.6676
     13 C7          1.1707    2.0862    0.0021 C.ar      1 <0>        -0.0032
     14 C8          2.3777    1.4131   -0.0131 C.ar      1 <0>        -0.1162
     15 C9          2.3983    0.0299   -0.0208 C.ar      1 <0>         0.0210
     16 C10         1.2094   -0.6794   -0.0132 C.ar      1 <0>        -0.0536
     17 C11         0.0021   -0.0041    0.0020 C.ar      1 <0>        -0.0005
     18 Cl1         1.2335   -2.4152   -0.0222 Cl        1 <0>        -0.0295
     19 Cl2         3.9142   -0.8161   -0.0393 Cl        1 <0>        -0.0263
     20 C12        -1.9135    0.7121    3.3269 C.3       1 <0>        -0.1585
     21 H1         -2.6329   -0.0165    0.7828 H         1 <0>         0.0865
     22 H2         -4.0194   -0.2345    1.8775 H         1 <0>         0.0838
     23 H3         -4.0546    1.0451    0.6407 H         1 <0>         0.0959
     24 H4         -2.4830    5.1561    3.5979 H         1 <0>         0.1302
     25 H5         -3.4304    4.7192    2.1542 H         1 <0>         0.0809
     26 H6         -0.8561    3.3967    3.1286 H         1 <0>         0.0950
     27 H7         -1.0694    4.3674    1.6485 H         1 <0>         0.1215
     28 H8          1.1550    3.1660    0.0077 H         1 <0>         0.1574
     29 H9          3.3048    1.9671   -0.0194 H         1 <0>         0.1567
     30 H10        -0.9258   -0.5567    0.0076 H         1 <0>         0.1605
     31 H11        -1.4820    1.4129    4.0417 H         1 <0>         0.0748
     32 H12        -2.5214   -0.0204    3.8578 H         1 <0>         0.0837
     33 H13        -1.1136    0.2007    2.7914 H         1 <0>         0.0763
@<TRIPOS>BOND
     1    1    2 1
     2    1   21 1
     3    1   22 1
     4    1   23 1
     5    2    8 1
     6    2    3 1
     7    2   20 1
     8    3    4 2
     9    3    5 1
    10    5    6 1
    11    6    7 1
    12    6   24 1
    13    6   25 1
    14    7    8 1
    15    7   26 1
    16    7   27 1
    17    8    9 1
    18    9   10 2
    19    9   11 2
    20    9   12 1
    21   12   17 ar
    22   12   13 ar
    23   13   14 ar
    24   13   28 1
    25   14   15 ar
    26   14   29 1
    27   15   16 ar
    28   15   19 1
    29   16   17 ar
    30   16   18 1
    31   17   30 1
    32   20   31 1
    33   20   32 1
    34   20   33 1
@<TRIPOS>MOLECULE
ZINC33078935
   45    48     0     0     0
SMALL
USER_CHARGES
(2,5-dimethyl-4-pyrrolidin-1-yl-thieno[2,3-d]pyrimidin-6-yl)-pyrrolidin-1-yl-methanone
@<TRIPOS>ATOM
      1 C1          3.7073    0.4113   -0.4668 C.3       1 <0>        -0.1351
      2 C2          2.2185    0.6382   -0.4113 C.2       1 <0>         0.0200
      3 C3          1.3444   -0.4538   -0.3307 C.ar      1 <0>        -0.1890
      4 C4          1.6433   -1.8486   -0.2886 C.ar      1 <0>         0.4173
      5 N1          0.6502   -2.7188   -0.2115 N.ar      1 <0>        -0.5590
      6 C5         -0.6155   -2.3431   -0.1719 C.ar      1 <0>         0.3655
      7 N2         -0.9574   -1.0694   -0.2075 N.ar      1 <0>        -0.4859
      8 C6         -0.0345   -0.1326   -0.2841 C.ar      1 <0>         0.1244
      9 S1         -0.0431    1.6402   -0.3537 S.3       1 <0>         0.1459
     10 C7          1.7199    1.9046   -0.4399 C.2       1 <0>        -0.2206
     11 C8          2.4518    3.1746   -0.5210 C.2       1 <0>         0.6206
     12 O1          3.6674    3.1739   -0.5738 O.2       1 <0>        -0.5135
     13 N3          1.7772    4.3413   -0.5371 N.am      1 <0>        -0.6166
     14 C9          0.3151    4.4865   -0.4857 C.3       1 <0>         0.0808
     15 C10         0.0018    5.9960   -0.5532 C.3       1 <0>        -0.1298
     16 C11         1.2753    6.5838   -1.2166 C.3       1 <0>        -0.1293
     17 C12         2.3831    5.6830   -0.6156 C.3       1 <0>         0.1109
     18 C13        -1.6932   -3.3929   -0.0847 C.3       1 <0>        -0.0892
     19 N4          2.9523   -2.2841   -0.3272 N.pl3     1 <0>        -0.4731
     20 C14         3.2438   -3.1958    0.8086 C.3       1 <0>         0.0320
     21 C15         4.4995   -3.9674    0.3306 C.3       1 <0>        -0.1201
     22 C16         4.2301   -4.1648   -1.1788 C.3       1 <0>        -0.1231
     23 C17         3.2134   -3.0702   -1.5525 C.3       1 <0>         0.0421
     24 H1          3.9151   -0.6684   -0.4330 H         1 <0>         0.1166
     25 H2          4.1855    0.9039    0.3927 H         1 <0>         0.0776
     26 H3          4.1079    0.8328   -1.4006 H         1 <0>         0.0771
     27 H4         -0.1359    3.9598   -1.3396 H         1 <0>         0.0755
     28 H5         -0.0635    4.0550    0.4526 H         1 <0>         0.0760
     29 H6         -0.9033    6.1559   -1.1575 H         1 <0>         0.0875
     30 H7         -0.1632    6.3821    0.4635 H         1 <0>         0.0812
     31 H8          1.1917    6.4985   -2.3101 H         1 <0>         0.0803
     32 H9          1.3782    7.6430   -0.9383 H         1 <0>         0.0908
     33 H10         2.6745    6.0132    0.3924 H         1 <0>         0.0747
     34 H11         3.2731    5.6462   -1.2610 H         1 <0>         0.0846
     35 H12        -2.6790   -2.9053   -0.0615 H         1 <0>         0.0933
     36 H13        -1.5552   -3.9848    0.8322 H         1 <0>         0.0936
     37 H14        -1.6321   -4.0548   -0.9611 H         1 <0>         0.0935
     38 H15         3.4340   -2.6027    1.7153 H         1 <0>         0.0857
     39 H16         2.3819   -3.8580    0.9778 H         1 <0>         0.0703
     40 H17         5.3975   -3.3626    0.5249 H         1 <0>         0.0803
     41 H18         4.5741   -4.9200    0.8756 H         1 <0>         0.0800
     42 H19         5.1710   -4.0509   -1.7371 H         1 <0>         0.0804
     43 H20         3.8219   -5.1718   -1.3498 H         1 <0>         0.0752
     44 H21         2.2737   -3.5182   -1.9079 H         1 <0>         0.0619
     45 H22         3.6225   -2.4100   -2.3315 H         1 <0>         0.0887
@<TRIPOS>BOND
     1    1    2 1
     2    1   24 1
     3    1   25 1
     4    1   26 1
     5    2   10 2
     6    2    3 1
     7    3    8 ar
     8    3    4 ar
     9    4    5 ar
    10    4   19 1
    11    5    6 ar
    12    6    7 ar
    13    6   18 1
    14    7    8 ar
    15    8    9 1
    16    9   10 1
    17   10   11 1
    18   11   12 2
    19   11   13 am
    20   13   17 1
    21   13   14 1
    22   14   15 1
    23   14   27 1
    24   14   28 1
    25   15   16 1
    26   15   29 1
    27   15   30 1
    28   16   17 1
    29   16   31 1
    30   16   32 1
    31   17   33 1
    32   17   34 1
    33   18   35 1
    34   18   36 1
    35   18   37 1
    36   19   23 1
    37   19   20 1
    38   20   21 1
    39   20   38 1
    40   20   39 1
    41   21   22 1
    42   21   40 1
    43   21   41 1
    44   22   23 1
    45   22   42 1
    46   22   43 1
    47   23   44 1
    48   23   45 1
@<TRIPOS>MOLECULE
ZINC44435256
   46    48     0     0     0
SMALL
USER_CHARGES

@<TRIPOS>ATOM
      1 C1         -0.0184    1.5028    0.0103 C.3       1 <0>        -0.1178
      2 C2          0.0021   -0.0041    0.0020 C.ar      1 <0>        -0.0663
      3 C3          0.0058   -0.6874   -1.2002 C.ar      1 <0>        -0.1224
      4 C4          0.0245   -2.0683   -1.2112 C.ar      1 <0>        -0.0639
      5 C5          0.0401   -2.7706   -0.0132 C.ar      1 <0>         0.1249
      6 C6          0.0368   -2.0814    1.1924 C.ar      1 <0>        -0.0628
      7 C7          0.0229   -0.7004    1.1966 C.ar      1 <0>        -0.1222
      8 C8          0.0531   -2.8395    2.4947 C.3       1 <0>        -0.1152
      9 N1          0.0586   -4.1697   -0.0209 N.am      1 <0>        -0.5701
     10 C9         -1.1421   -5.0138   -0.0249 C.3       1 <0>         0.1123
     11 C10        -0.6607   -6.4130   -0.4685 C.3       1 <0>        -0.0173
     12 H1         -0.7556   -6.5342   -1.5476 H         1 <0>         0.1451
     13 C11         0.8258   -6.3845   -0.0436 C.3       1 <0>        -0.1482
     14 C12         1.1783   -4.9134   -0.0314 C.2       1 <0>         0.5274
     15 O1          2.3070   -4.4696   -0.0287 O.2       1 <0>        -0.5035
     16 C13        -1.4104   -7.4977    0.2612 C.2       1 <0>         0.2969
     17 N2         -2.1418   -8.4255   -0.2910 N.2       1 <0>        -0.5294
     18 C14        -2.6610   -9.2218    0.6503 C.2       1 <0>         0.2596
     19 N3         -2.2639   -8.8077    1.8191 N.2       1 <0>        -0.3271
     20 O2         -1.4354   -7.6781    1.5877 O.3       1 <0>        -0.1025
     21 C15        -3.5597  -10.4051    0.3987 C.3       1 <0>        -0.0129
     22 C16        -2.8998  -11.6722    0.9463 C.3       1 <0>        -0.1480
     23 C17        -4.9014  -10.1848    1.1004 C.3       1 <0>        -0.1478
     24 C18         0.0275   -2.8123   -2.5217 C.3       1 <0>        -0.1145
     25 H2          1.0042    1.8801    0.0026 H         1 <0>         0.0740
     26 H3         -0.5455    1.8639   -0.8728 H         1 <0>         0.0688
     27 H4         -0.5286    1.8543    0.9071 H         1 <0>         0.0687
     28 H5         -0.0064   -0.1406   -2.1315 H         1 <0>         0.1280
     29 H6          0.0244   -0.1637    2.1338 H         1 <0>         0.1278
     30 H7          1.0846   -3.0087    2.8037 H         1 <0>         0.0738
     31 H8         -0.4648   -2.2600    3.2590 H         1 <0>         0.0707
     32 H9         -0.4487   -3.7982    2.3634 H         1 <0>         0.0648
     33 H10        -1.5722   -5.0625    0.9754 H         1 <0>         0.0854
     34 H11        -1.8742   -4.6248   -0.7326 H         1 <0>         0.0995
     35 H12         0.9471   -6.8180    0.9491 H         1 <0>         0.1185
     36 H13         1.4406   -6.9153   -0.7704 H         1 <0>         0.1224
     37 H14        -3.7240  -10.5152   -0.6732 H         1 <0>         0.1088
     38 H15        -3.5498  -12.5281    0.7644 H         1 <0>         0.0770
     39 H16        -1.9439  -11.8291    0.4465 H         1 <0>         0.0610
     40 H17        -2.7355  -11.5621    2.0183 H         1 <0>         0.0647
     41 H18        -5.3715   -9.2821    0.7103 H         1 <0>         0.0608
     42 H19        -5.5514  -11.0407    0.9185 H         1 <0>         0.0770
     43 H20        -4.7371  -10.0747    2.1723 H         1 <0>         0.0647
     44 H21         1.0558   -2.9777   -2.8433 H         1 <0>         0.0739
     45 H22        -0.4727   -3.7725   -2.3956 H         1 <0>         0.0648
     46 H23        -0.4985   -2.2247   -3.2742 H         1 <0>         0.0709
@<TRIPOS>BOND
     1    1    2 1
     2    1   25 1
     3    1   26 1
     4    1   27 1
     5    2    7 ar
     6    2    3 ar
     7    3    4 ar
     8    3   28 1
     9    4    5 ar
    10    4   24 1
    11    5    6 ar
    12    5    9 1
    13    6    7 ar
    14    6    8 1
    15    7   29 1
    16    8   30 1
    17    8   31 1
    18    8   32 1
    19    9   14 am
    20    9   10 1
    21   10   11 1
    22   10   33 1
    23   10   34 1
    24   11   12 1
    25   11   13 1
    26   11   16 1
    27   13   14 1
    28   13   35 1
    29   13   36 1
    30   14   15 2
    31   16   20 1
    32   16   17 2
    33   17   18 1
    34   18   19 2
    35   18   21 1
    36   19   20 1
    37   21   22 1
    38   21   23 1
    39   21   37 1
    40   22   38 1
    41   22   39 1
    42   22   40 1
    43   23   41 1
    44   23   42 1
    45   23   43 1
    46   24   44 1
    47   24   45 1
    48   24   46 1
@<TRIPOS>MOLECULE
ZINC61403050
   31    33     0     0     0
SMALL
USER_CHARGES

@<TRIPOS>ATOM
      1 C1         -0.0184    1.5028    0.0103 C.3       1 <0>        -0.1185
      2 C2          0.0021   -0.0041    0.0020 C.2       1 <0>        -0.1023
      3 C3          0.0058   -0.6758   -1.1584 C.2       1 <0>        -0.1172
      4 S1          0.0313   -2.3852   -0.6527 S.3       1 <0>         0.1359
      5 C4          0.0363   -2.1539    1.1052 C.ar      1 <0>         0.1205
      6 C5          0.0240   -0.7456    1.2515 C.ar      1 <0>        -0.1610
      7 C6          0.0298   -0.2737    2.5847 C.ar      1 <0>         0.2705
      8 N1          0.0507   -1.1417    3.5757 N.ar      1 <0>        -0.4955
      9 C7          0.0665   -2.4468    3.3708 C.ar      1 <0>         0.3268
     10 N2          0.0514   -2.9511    2.1517 N.ar      1 <0>        -0.4403
     11 C8          0.0904   -3.3791    4.5546 C.3       1 <0>         0.1908
     12 N3         -1.2828   -3.7000    4.9513 N.am      1 <0>        -0.3489
     13 C9         -1.8906   -4.7707    4.4055 C.2       1 <0>         0.4750
     14 O1         -1.3033   -5.4645    3.5908 O.2       1 <0>        -0.5099
     15 C10        -3.2138   -5.0825    4.7858 C.2       1 <0>        -0.1865
     16 C11        -3.8214   -4.2714    5.7017 C.2       1 <0>        -0.0712
     17 C12        -3.0975   -3.1798    6.2091 C.2       1 <0>         0.0353
     18 N4         -1.8748   -2.9565    5.8145 N.2       1 <0>        -0.2141
     19 Cl1         0.0103    1.4311    2.9119 Cl        1 <0>         0.0091
     20 C13        -0.0090   -0.1180   -2.5583 C.3       1 <0>        -0.0759
     21 H1          1.0042    1.8801    0.0026 H         1 <0>         0.0787
     22 H2         -0.5455    1.8639   -0.8728 H         1 <0>         0.0756
     23 H3         -0.5286    1.8543    0.9071 H         1 <0>         0.0798
     24 H4          0.6142   -4.2960    4.2843 H         1 <0>         0.1378
     25 H5          0.6057   -2.8978    5.3858 H         1 <0>         0.1349
     26 H6         -3.7288   -5.9340    4.3662 H         1 <0>         0.1638
     27 H7         -4.8330   -4.4644    6.0272 H         1 <0>         0.1543
     28 H8         -3.5552   -2.5234    6.9344 H         1 <0>         0.1906
     29 H9          1.0150    0.0310   -2.9009 H         1 <0>         0.0896
     30 H10        -0.5163   -0.8174   -3.2227 H         1 <0>         0.0819
     31 H11        -0.5364    0.8359   -2.5637 H         1 <0>         0.0902
@<TRIPOS>BOND
     1    1    2 1
     2    1   21 1
     3    1   22 1
     4    1   23 1
     5    2    6 1
     6    2    3 2
     7    3    4 1
     8    3   20 1
     9    4    5 1
    10    5   10 ar
    11    5    6 ar
    12    6    7 ar
    13    7    8 ar
    14    7   19 1
    15    8    9 ar
    16    9   10 ar
    17    9   11 1
    18   11   12 1
    19   11   24 1
    20   11   25 1
    21   12   18 1
    22   12   13 am
    23   13   14 2
    24   13   15 1
    25   15   16 2
    26   15   26 1
    27   16   17 1
    28   16   27 1
    29   17   18 2
    30   17   28 1
    31   20   29 1
    32   20   30 1
    33   20   31 1
@<TRIPOS>MOLECULE
ZINC66910451
   46    48     0     0     0
SMALL
USER_CHARGES

@<TRIPOS>ATOM
      1 C1         -0.1566    1.6328   -0.2968 C.3       1 <0>        -0.1678
      2 C2         -0.1513    0.1032   -0.2668 C.3       1 <0>         0.1188
      3 N1          0.5997   -0.4052   -1.4174 N.pl3     1 <0>        -0.3564
      4 C3          1.6430   -1.2597   -1.3698 C.2       1 <0>         0.1768
      5 C4          2.0540   -1.4802   -2.6400 C.2       1 <0>        -0.8177
      6 C5          1.2336   -0.7349   -3.4932 C.2       1 <0>         0.1295
      7 N2          0.3577   -0.0948   -2.7619 N.2       1 <0>        -0.2857
      8 S1          3.3875   -2.5214   -3.1323 S.o2      1 <0>         2.7202
      9 O1          3.8236   -2.0507   -4.4001 O.2       1 <0>        -0.9511
     10 O2          4.2598   -2.6198   -2.0148 O.2       1 <0>        -0.9664
     11 N3          2.7618   -4.0347   -3.3789 N.pl3     1 <0>        -0.9933
     12 C6          2.8634   -5.0727   -2.3415 C.3       1 <0>         0.1157
     13 C7          3.4960   -6.3280   -2.9484 C.3       1 <0>        -0.1274
     14 C8          2.7121   -6.7504   -4.1946 C.3       1 <0>        -0.0856
     15 H1          3.1584   -7.6502   -4.6180 H         1 <0>         0.0743
     16 C9          2.7613   -5.6230   -5.2246 C.3       1 <0>        -0.0893
     17 H2          3.8004   -5.3962   -5.4634 H         1 <0>         0.0781
     18 C10         2.0857   -4.3749   -4.6354 C.3       1 <0>         0.1604
     19 H3          1.0347   -4.5858   -4.4377 H         1 <0>         0.0770
     20 C11         2.1987   -3.2246   -5.6346 C.3       1 <0>        -0.1607
     21 C12         1.4769   -3.6142   -6.9279 C.3       1 <0>        -0.1139
     22 C13         2.1091   -4.8764   -7.5156 C.3       1 <0>        -0.1230
     23 C14         2.0236   -6.0248   -6.5010 C.3       1 <0>        -0.1140
     24 C15         1.2577   -7.0323   -3.8125 C.3       1 <0>        -0.1546
     25 H4          0.8686    2.0007   -0.2528 H         1 <0>         0.0630
     26 H5         -0.6267    1.9766   -1.2181 H         1 <0>         0.0731
     27 H6         -0.7153    2.0111    0.5593 H         1 <0>         0.0809
     28 H7          0.3189   -0.2406    0.6545 H         1 <0>         0.1028
     29 H8         -1.1764   -0.2647   -0.3108 H         1 <0>         0.0934
     30 H9          2.0732   -1.6903   -0.4776 H         1 <0>         0.1907
     31 H10         1.3074   -0.6980   -4.5701 H         1 <0>         0.1978
     32 H11         3.4855   -4.7103   -1.5231 H         1 <0>         0.0949
     33 H12         1.8682   -5.3113   -1.9661 H         1 <0>         0.0695
     34 H13         4.5291   -6.1163   -3.2242 H         1 <0>         0.0692
     35 H14         3.4751   -7.1350   -2.2159 H         1 <0>         0.0768
     36 H15         1.7378   -2.3304   -5.2149 H         1 <0>         0.0640
     37 H16         3.2495   -3.0289   -5.8482 H         1 <0>         0.1196
     38 H17         0.4250   -3.8023   -6.7131 H         1 <0>         0.0598
     39 H18         1.5583   -2.7996   -7.6476 H         1 <0>         0.0693
     40 H19         1.5809   -5.1553   -8.4273 H         1 <0>         0.0637
     41 H20         3.1557   -4.6818   -7.7499 H         1 <0>         0.0645
     42 H21         2.4809   -6.9214   -6.9196 H         1 <0>         0.0665
     43 H22         0.9766   -6.2215   -6.2705 H         1 <0>         0.0658
     44 H23         0.8116   -6.1314   -3.3912 H         1 <0>         0.0588
     45 H24         0.7006   -7.3327   -4.6999 H         1 <0>         0.0578
     46 H25         1.2247   -7.8335   -3.0743 H         1 <0>         0.0542
@<TRIPOS>BOND
     1    1    2 1
     2    1   25 1
     3    1   26 1
     4    1   27 1
     5    2    3 1
     6    2   28 1
     7    2   29 1
     8    3    7 1
     9    3    4 1
    10    4    5 2
    11    4   30 1
    12    5    6 1
    13    5    8 1
    14    6    7 2
    15    6   31 1
    16    8    9 2
    17    8   10 2
    18    8   11 1
    19   11   18 1
    20   11   12 1
    21   12   13 1
    22   12   32 1
    23   12   33 1
    24   13   14 1
    25   13   34 1
    26   13   35 1
    27   14   15 1
    28   14   16 1
    29   14   24 1
    30   16   17 1
    31   16   23 1
    32   16   18 1
    33   18   19 1
    34   18   20 1
    35   20   21 1
    36   20   36 1
    37   20   37 1
    38   21   22 1
    39   21   38 1
    40   21   39 1
    41   22   23 1
    42   22   40 1
    43   22   41 1
    44   23   42 1
    45   23   43 1
    46   24   44 1
    47   24   45 1
    48   24   46 1
@<TRIPOS>MOLECULE
ZINC01306805
   36    37     0     0     0
SMALL
USER_CHARGES
(3-nitrophenyl)methylene-oxido-(3,5,5-trimethyl-2-thioxo-thiazolidin-4-yl)-ammonium
@<TRIPOS>ATOM
      1 C1         -0.6527    5.3173    1.6884 C.3       1 <0>        -0.1372
      2 C2         -0.6210    4.7412    0.2713 C.3       1 <0>        -0.0562
      3 C3          0.7380    4.0762   -0.0286 C.3       1 <0>         0.2997
      4 H1          1.3920    4.2178    0.8319 H         1 <0>         0.1448
      5 N1          0.6329    2.6620   -0.3035 N.pl3     1 <0>        -0.5493
      6 C4         -0.5568    2.0444   -0.2850 C.2       1 <0>         0.3312
      7 S1         -0.8657    0.3875   -0.5855 S.2       1 <0>        -0.4129
      8 S2         -1.7505    3.3063    0.1093 S.3       1 <0>        -0.0341
      9 C5          1.8422    1.8925   -0.6060 C.3       1 <0>         0.0489
     10 N2          1.3397    4.7376   -1.1891 N.pl3     1 <0>        -0.2038
     11 C6          2.4379    5.4073   -1.0544 C.2       1 <0>         0.1896
     12 C7          3.1591    5.8904   -2.2487 C.ar      1 <0>        -0.1048
     13 C8          2.7630    5.4769   -3.5222 C.ar      1 <0>        -0.0268
     14 C9          3.4409    5.9325   -4.6337 C.ar      1 <0>        -0.1301
     15 C10         4.5111    6.7978   -4.4888 C.ar      1 <0>        -0.0269
     16 C11         4.9088    7.2114   -3.2301 C.ar      1 <0>        -0.0585
     17 C12         4.2364    6.7672   -2.1101 C.ar      1 <0>        -0.0135
     18 N3          6.0546    8.1371   -3.0848 N.pl3     1 <0>         0.0278
     19 O1          6.6461    8.5337   -4.0729 O.2       1 <0>        -0.1528
     20 O2          6.4059    8.5021   -1.9772 O.3       1 <0>        -0.1568
     21 O3          0.7188    4.6438   -2.4582 O.3       1 <0>        -0.4889
     22 C13        -0.9496    5.8173   -0.7655 C.3       1 <0>        -0.1468
     23 H2          0.1322    6.0662    1.7938 H         1 <0>         0.0823
     24 H3         -1.6228    5.7795    1.8710 H         1 <0>         0.0915
     25 H4         -0.4902    4.5165    2.4098 H         1 <0>         0.0777
     26 H5          1.5749    0.8512   -0.7856 H         1 <0>         0.1229
     27 H6          2.3213    2.3031   -1.4949 H         1 <0>         0.0792
     28 H7          2.5304    1.9507    0.2373 H         1 <0>         0.0831
     29 H8          2.8274    5.6130   -0.0683 H         1 <0>         0.1839
     30 H9          1.9275    4.8022   -3.6366 H         1 <0>         0.2053
     31 H10         3.1356    5.6135   -5.6193 H         1 <0>         0.1539
     32 H11         5.0379    7.1520   -5.3625 H         1 <0>         0.1576
     33 H12         4.5454    7.0941   -1.1282 H         1 <0>         0.1606
     34 H13        -0.9942    5.3654   -1.7565 H         1 <0>         0.1139
     35 H14        -1.9131    6.2683   -0.5282 H         1 <0>         0.0768
     36 H15        -0.1756    6.5846   -0.7506 H         1 <0>         0.0688
@<TRIPOS>BOND
     1    1    2 1
     2    1   23 1
     3    1   24 1
     4    1   25 1
     5    2    8 1
     6    2    3 1
     7    2   22 1
     8    3    4 1
     9    3    5 1
    10    3   10 1
    11    5    6 1
    12    5    9 1
    13    6    7 2
    14    6    8 1
    15    9   26 1
    16    9   27 1
    17    9   28 1
    18   10   11 2
    19   10   21 1
    20   11   12 1
    21   11   29 1
    22   12   17 ar
    23   12   13 ar
    24   13   14 ar
    25   13   30 1
    26   14   15 ar
    27   14   31 1
    28   15   16 ar
    29   15   32 1
    30   16   17 ar
    31   16   18 1
    32   17   33 1
    33   18   19 2
    34   18   20 1
    35   22   34 1
    36   22   35 1
    37   22   36 1
@<TRIPOS>MOLECULE
ZINC35178007
   35    37     0     0     0
SMALL
USER_CHARGES

@<TRIPOS>ATOM
      1 C1         -0.0152    1.4622    0.0617 C.3       1 <0>         0.0340
      2 O1         -0.0018    0.0334    0.0390 O.3       1 <0>        -0.3514
      3 C2          0.6170   -0.5864    1.0563 C.2       1 <0>         0.4492
      4 O2          1.1302    0.0627    1.9367 O.2       1 <0>        -0.4866
      5 C3          0.6716   -2.0917    1.1001 C.3       1 <0>         0.1496
      6 H1          1.1742   -2.4704    0.2101 H         1 <0>         0.1210
      7 C4         -0.7583   -2.6667    1.1800 C.3       1 <0>        -0.1185
      8 C5         -0.5966   -3.8667    2.1502 C.3       1 <0>        -0.1325
      9 C6          0.4655   -3.3257    3.1397 C.3       1 <0>         0.0870
     10 N1          1.3902   -2.5311    2.3051 N.am      1 <0>        -0.6031
     11 C7          2.6764   -2.2544    2.5974 C.2       1 <0>         0.5942
     12 O3          3.3741   -1.6786    1.7849 O.2       1 <0>        -0.5118
     13 C8          3.2382   -2.6503    3.9037 C.ar      1 <0>        -0.1067
     14 C9          4.6150   -2.8433    4.0446 C.ar      1 <0>        -0.0387
     15 C10         5.1373   -3.2138    5.2683 C.ar      1 <0>         0.0421
     16 C11         4.2901   -3.3948    6.3623 C.ar      1 <0>         0.0696
     17 C12         2.9216   -3.2026    6.2216 C.ar      1 <0>        -0.0288
     18 C13         2.3955   -2.8273    5.0034 C.ar      1 <0>        -0.0769
     19 Cl1         1.8713   -3.4289    7.5852 Cl        1 <0>        -0.0389
     20 O4          5.0435   -3.7545    7.4408 O.3       1 <0>        -0.2921
     21 C14         6.3051   -4.1906    6.9015 C.3       1 <0>         0.2108
     22 O5          6.4200   -3.4612    5.6654 O.3       1 <0>        -0.2975
     23 H2          1.0089    1.8354    0.0526 H         1 <0>         0.0617
     24 H3         -0.5454    1.8345   -0.8149 H         1 <0>         0.1047
     25 H4         -0.5194    1.8065    0.9647 H         1 <0>         0.0605
     26 H5         -1.4481   -1.9292    1.5904 H         1 <0>         0.0854
     27 H6         -1.0930   -3.0058    0.1997 H         1 <0>         0.1037
     28 H7         -1.5337   -4.0835    2.6630 H         1 <0>         0.0969
     29 H8         -0.2280   -4.7474    1.6243 H         1 <0>         0.0877
     30 H9         -0.0050   -2.6943    3.8933 H         1 <0>         0.0802
     31 H10         0.9978   -4.1506    3.6132 H         1 <0>         0.0932
     32 H11         5.2700   -2.7033    3.1973 H         1 <0>         0.1557
     33 H12         1.3315   -2.6744    4.8986 H         1 <0>         0.1626
     34 H13         7.1204   -3.9308    7.5766 H         1 <0>         0.1407
     35 H14         6.2903   -5.2640    6.7127 H         1 <0>         0.0932
@<TRIPOS>BOND
     1    1    2 1
     2    1   23 1
     3    1   24 1
     4    1   25 1
     5    2    3 1
     6    3    4 2
     7    3    5 1
     8    5    6 1
     9    5   10 1
    10    5    7 1
    11    7    8 1
    12    7   26 1
    13    7   27 1
    14    8    9 1
    15    8   28 1
    16    8   29 1
    17    9   10 1
    18    9   30 1
    19    9   31 1
    20   10   11 am
    21   11   12 2
    22   11   13 1
    23   13   18 ar
    24   13   14 ar
    25   14   15 ar
    26   14   32 1
    27   15   22 1
    28   15   16 ar
    29   16   17 ar
    30   16   20 1
    31   17   18 ar
    32   17   19 1
    33   18   33 1
    34   20   21 1
    35   21   22 1
    36   21   34 1
    37   21   35 1
@<TRIPOS>MOLECULE
ZINC40713436
   20    20     0     0     0
SMALL
USER_CHARGES

@<TRIPOS>ATOM
      1 C1          3.5816   -0.7523   -1.6335 C.2       1 <0>        -0.0023
      2 C2          3.0976   -0.3596   -0.4812 C.2       1 <0>        -0.7211
      3 S1          1.4744   -0.8440    0.0037 S.o2      1 <0>         2.5660
      4 O1          0.8059    0.3380    0.4223 O.2       1 <0>        -0.8865
      5 O2          0.9724   -1.6767   -1.0327 O.2       1 <0>        -0.9060
      6 C3          1.6394   -1.8621    1.4323 C.ar      1 <0>        -0.3511
      7 C4          2.1888   -1.3356    2.5863 C.ar      1 <0>        -0.0255
      8 C5          2.3143   -2.1445    3.7049 C.ar      1 <0>         0.0051
      9 C6          1.8804   -3.4598    3.6205 C.ar      1 <0>        -0.1080
     10 C7          1.3411   -3.9161    2.4318 C.ar      1 <0>         0.1596
     11 N1          1.2325   -3.1155    1.3894 N.ar      1 <0>        -0.3637
     12 Br1         2.0253   -4.6136    5.1117 Br        1 <0>         0.0288
     13 N2          2.6377    0.0741    2.6269 N.pl3     1 <0>         0.0158
     14 O3          3.1746    0.5092    3.6189 O.2       1 <0>        -0.1123
     15 O4          2.4675    0.7906    1.6681 O.3       1 <0>        -0.1188
     16 H1          2.9856   -1.3729   -2.2863 H         1 <0>         0.1308
     17 H2          4.5749   -0.4517   -1.9327 H         1 <0>         0.1268
     18 H3          3.6936    0.2609    0.1715 H         1 <0>         0.1727
     19 H4          2.7401   -1.7604    4.6200 H         1 <0>         0.1878
     20 H5          1.0009   -4.9384    2.3576 H         1 <0>         0.2020
@<TRIPOS>BOND
     1    1    2 2
     2    1   16 1
     3    1   17 1
     4    2    3 1
     5    2   18 1
     6    3    4 2
     7    3    5 2
     8    3    6 1
     9    6   11 ar
    10    6    7 ar
    11    7    8 ar
    12    7   13 1
    13    8    9 ar
    14    8   19 1
    15    9   10 ar
    16    9   12 1
    17   10   11 ar
    18   10   20 1
    19   13   14 2
    20   13   15 1
@<TRIPOS>MOLECULE
ZINC48841268
   33    35     0     0     0
SMALL
USER_CHARGES

@<TRIPOS>ATOM
      1 C1          1.3309    1.5655   -1.1130 C.ar      1 <0>        -0.0678
      2 C2          1.1146    2.2128    0.0889 C.ar      1 <0>        -0.0909
      3 C3          0.8647    1.4778    1.2351 C.ar      1 <0>         0.1435
      4 C4          0.8318    0.0947    1.1761 C.ar      1 <0>         0.0205
      5 C5          1.0484   -0.5502   -0.0266 C.ar      1 <0>        -0.6134
      6 C6          1.2979    0.1849   -1.1708 C.ar      1 <0>        -0.0340
      7 S1          1.0072   -2.3101   -0.1021 S.o2      1 <0>         2.6828
      8 O1          1.8772   -2.7809    0.9181 O.2       1 <0>        -0.9194
      9 O2         -0.3628   -2.6819   -0.1664 O.2       1 <0>        -0.9202
     10 N1          1.6864   -2.7544   -1.5455 N.pl3     1 <0>        -1.0055
     11 C7          1.0096   -2.8138   -2.8580 C.3       1 <0>         0.1154
     12 C8          2.0984   -3.3110   -3.8591 C.3       1 <0>        -0.1051
     13 H1          1.7381   -3.7536   -4.7877 H         1 <0>         0.1211
     14 C9          3.0637   -2.0927   -4.0006 C.3       1 <0>        -0.1237
     15 C10         3.7246   -1.9707   -2.6076 C.3       1 <0>        -0.1439
     16 C11         3.1014   -3.1659   -1.7745 C.3       1 <0>         0.1329
     17 H2          3.6544   -3.4723   -0.8866 H         1 <0>         0.1327
     18 C12         2.9206   -4.2475   -2.9018 C.3       1 <0>        -0.1283
     19 N2          0.5653   -0.6925    2.4007 N.pl3     1 <0>        -0.0098
     20 O3         -0.5706   -0.9771    2.7011 O.2       1 <0>        -0.1222
     21 O4          1.4836   -1.0509    3.1007 O.3       1 <0>        -0.0759
     22 F1          0.6536    2.1095    2.4106 F         1 <0>        -0.1100
     23 H3          1.5214    2.1388   -2.0083 H         1 <0>         0.1655
     24 H4          1.1408    3.2916    0.1338 H         1 <0>         0.1713
     25 H5          1.4667   -0.3201   -2.1104 H         1 <0>         0.1631
     26 H6          0.1785   -3.5181   -2.8230 H         1 <0>         0.0826
     27 H7          0.6554   -1.8240   -3.1457 H         1 <0>         0.0699
     28 H8          3.8164   -2.2888   -4.7643 H         1 <0>         0.0751
     29 H9          2.5042   -1.1880   -4.2381 H         1 <0>         0.0683
     30 H10         4.8052   -2.0892   -2.6874 H         1 <0>         0.0826
     31 H11         3.4786   -1.0113   -2.1524 H         1 <0>         0.0668
     32 H12         2.3383   -5.1051   -2.5647 H         1 <0>         0.0839
     33 H13         3.8728   -4.5489   -3.3384 H         1 <0>         0.0920
@<TRIPOS>BOND
     1    1    6 ar
     2    1    2 ar
     3    1   23 1
     4    2    3 ar
     5    2   24 1
     6    3    4 ar
     7    3   22 1
     8    4    5 ar
     9    4   19 1
    10    5    6 ar
    11    5    7 1
    12    6   25 1
    13    7    8 2
    14    7    9 2
    15    7   10 1
    16   10   16 1
    17   10   11 1
    18   11   12 1
    19   11   26 1
    20   11   27 1
    21   12   13 1
    22   12   18 1
    23   12   14 1
    24   14   15 1
    25   14   28 1
    26   14   29 1
    27   15   16 1
    28   15   30 1
    29   15   31 1
    30   16   17 1
    31   16   18 1
    32   18   32 1
    33   18   33 1
    34   19   20 2
    35   19   21 1
@<TRIPOS>MOLECULE
ZINC21718753
   40    42     0     0     0
SMALL
USER_CHARGES

@<TRIPOS>ATOM
      1 C1         -0.0184    1.5028    0.0103 C.3       1 <0>        -0.0890
      2 C2          0.0021   -0.0041    0.0020 C.2       1 <0>         0.0732
      3 C3         -1.0767   -0.8104    0.0026 C.2       1 <0>        -0.2702
      4 C4         -0.6269   -2.1430   -0.0073 C.2       1 <0>         0.0970
      5 N1          0.6760   -2.1297   -0.0134 N.2       1 <0>        -0.3078
      6 O1          1.0981   -0.7779   -0.0131 O.3       1 <0>        -0.0781
      7 C5         -1.4995   -3.3716   -0.0097 C.3       1 <0>         0.2116
      8 H1         -2.5478   -3.0814   -0.0795 H         1 <0>         0.1106
      9 C6         -1.1255   -4.2786   -1.2009 C.3       1 <0>        -0.1262
     10 C7         -1.2475   -5.7052   -0.6032 C.3       1 <0>        -0.1291
     11 C8         -0.7549   -5.4776    0.8477 C.3       1 <0>         0.0919
     12 N2         -1.2759   -4.1461    1.2198 N.am      1 <0>        -0.5992
     13 C9         -1.5065   -3.7118    2.4747 C.2       1 <0>         0.6113
     14 O2         -1.9369   -2.5899    2.6602 O.2       1 <0>        -0.4962
     15 C10        -1.2369   -4.5975    3.6230 C.2       1 <0>         0.0198
     16 C11        -1.4282   -4.2920    4.9351 C.2       1 <0>        -0.1915
     17 C12        -1.0498   -5.4086    5.6994 C.2       1 <0>         0.1088
     18 N3         -0.6490   -6.3438    4.8862 N.2       1 <0>        -0.2939
     19 O3         -0.7621   -5.8572    3.5614 O.3       1 <0>        -0.0671
     20 C13        -1.0988   -5.5072    7.2023 C.3       1 <0>        -0.0273
     21 C14         0.1820   -4.9157    7.7943 C.3       1 <0>        -0.1462
     22 C15        -2.3086   -4.7300    7.7252 C.3       1 <0>        -0.1489
     23 H2          1.0042    1.8801    0.0026 H         1 <0>         0.0848
     24 H3         -0.5455    1.8639   -0.8728 H         1 <0>         0.0969
     25 H4         -0.5286    1.8543    0.9071 H         1 <0>         0.0966
     26 H5         -2.1079   -0.4896    0.0097 H         1 <0>         0.1593
     27 H6         -1.8278   -4.1438   -2.0236 H         1 <0>         0.0969
     28 H7         -0.1043   -4.0836   -1.5284 H         1 <0>         0.0884
     29 H8         -2.2825   -6.0468   -0.6154 H         1 <0>         0.0846
     30 H9         -0.6001   -6.4062   -1.1302 H         1 <0>         0.0960
     31 H10        -1.1615   -6.2414    1.5106 H         1 <0>         0.0949
     32 H11         0.3345   -5.4837    0.8839 H         1 <0>         0.0815
     33 H12        -1.8046   -3.3561    5.3210 H         1 <0>         0.1718
     34 H13        -1.1850   -6.5536    7.4952 H         1 <0>         0.0974
     35 H14         0.1466   -4.9869    8.8814 H         1 <0>         0.0740
     36 H15         1.0439   -5.4693    7.4218 H         1 <0>         0.0609
     37 H16         0.2681   -3.8693    7.5014 H         1 <0>         0.0629
     38 H17        -3.2211   -5.1514    7.3035 H         1 <0>         0.0619
     39 H18        -2.3440   -4.8013    8.8123 H         1 <0>         0.0731
     40 H19        -2.2225   -3.6836    7.4323 H         1 <0>         0.0645
@<TRIPOS>BOND
     1    1    2 1
     2    1   23 1
     3    1   24 1
     4    1   25 1
     5    2    6 1
     6    2    3 2
     7    3    4 1
     8    3   26 1
     9    4    5 2
    10    4    7 1
    11    5    6 1
    12    7    8 1
    13    7   12 1
    14    7    9 1
    15    9   10 1
    16    9   27 1
    17    9   28 1
    18   10   11 1
    19   10   29 1
    20   10   30 1
    21   11   12 1
    22   11   31 1
    23   11   32 1
    24   12   13 am
    25   13   14 2
    26   13   15 1
    27   15   19 1
    28   15   16 2
    29   16   17 1
    30   16   33 1
    31   17   18 2
    32   17   20 1
    33   18   19 1
    34   20   21 1
    35   20   22 1
    36   20   34 1
    37   21   35 1
    38   21   36 1
    39   21   37 1
    40   22   38 1
    41   22   39 1
    42   22   40 1
@<TRIPOS>MOLECULE
ZINC14033606
   45    47     0     0     0
SMALL
USER_CHARGES
(3R)-7-isopropyl-3-[2-oxo-2-(1-piperidyl)ethyl]-2,3-dihydrothiazolo[2,3-b]pyrimidin-5-one
@<TRIPOS>ATOM
      1 C1         -4.2017    3.8250    6.2307 C.3       1 <0>        -0.1430
      2 C2         -5.0594    3.1980    5.1298 C.3       1 <0>        -0.0458
      3 C3         -6.4474    3.8418    5.1357 C.3       1 <0>        -0.1436
      4 C4         -4.4052    3.4269    3.7916 C.2       1 <0>         0.2138
      5 C5         -4.0335    2.3699    3.0122 C.2       1 <0>        -0.2989
      6 C6         -3.4287    2.6073    1.7744 C.2       1 <0>         0.5314
      7 O1         -3.0926    1.6689    1.0708 O.2       1 <0>        -0.5299
      8 N1         -3.2103    3.8964    1.3516 N.am      1 <0>        -0.5423
      9 C7         -3.6120    4.8893    2.1866 C.2       1 <0>         0.3877
     10 N2         -4.1815    4.6620    3.3519 N.2       1 <0>        -0.5025
     11 S1         -3.2100    6.4266    1.3852 S.3       1 <0>        -0.0100
     12 C8         -2.4651    5.7720   -0.1541 C.3       1 <0>        -0.0907
     13 C9         -2.5900    4.2592    0.0788 C.3       1 <0>         0.1269
     14 H1         -3.1840    3.8327   -0.7294 H         1 <0>         0.1258
     15 C10        -1.1906    3.6429    0.0275 C.3       1 <0>        -0.1579
     16 C11        -0.6322    3.7797   -1.3655 C.2       1 <0>         0.5252
     17 O2         -1.3261    4.2226   -2.2562 O.2       1 <0>        -0.5367
     18 N3          0.6383    3.4100   -1.6216 N.am      1 <0>        -0.6080
     19 C12         1.4931    2.8776   -0.5517 C.3       1 <0>         0.1031
     20 C13         2.0673    1.5311   -1.0035 C.3       1 <0>        -0.1375
     21 C14         2.7790    1.7093   -2.3465 C.3       1 <0>        -0.1214
     22 C15         1.7743    2.1836   -3.3991 C.3       1 <0>        -0.1365
     23 C16         1.1968    3.5375   -2.9745 C.3       1 <0>         0.1101
     24 H2         -4.6749    3.6595    7.1986 H         1 <0>         0.0663
     25 H3         -3.2129    3.3663    6.2265 H         1 <0>         0.0548
     26 H4         -4.1063    4.8959    6.0514 H         1 <0>         0.0681
     27 H5         -5.1549    2.1271    5.3091 H         1 <0>         0.0942
     28 H6         -7.0584    3.3952    4.3513 H         1 <0>         0.0552
     29 H7         -6.9206    3.6763    6.1035 H         1 <0>         0.0664
     30 H8         -6.3519    4.9127    4.9563 H         1 <0>         0.0682
     31 H9         -4.2051    1.3582    3.3491 H         1 <0>         0.1608
     32 H10        -1.4205    6.0706   -0.2425 H         1 <0>         0.1283
     33 H11        -3.0356    6.0828   -1.0293 H         1 <0>         0.1398
     34 H12        -1.2485    2.5874    0.2937 H         1 <0>         0.1241
     35 H13        -0.5397    4.1602    0.7323 H         1 <0>         0.1020
     36 H14         2.3076    3.5743   -0.3539 H         1 <0>         0.0750
     37 H15         0.9015    2.7375    0.3530 H         1 <0>         0.0840
     38 H16         1.2582    0.8090   -1.1135 H         1 <0>         0.0692
     39 H17         2.7783    1.1709   -0.2599 H         1 <0>         0.0788
     40 H18         3.2097    0.7578   -2.6584 H         1 <0>         0.0685
     41 H19         3.5719    2.4499   -2.2416 H         1 <0>         0.0659
     42 H20         0.9680    1.4554   -3.4866 H         1 <0>         0.0675
     43 H21         2.2769    2.2879   -4.3607 H         1 <0>         0.0781
     44 H22         0.4098    3.8328   -3.6684 H         1 <0>         0.0950
     45 H23         1.9872    4.2880   -2.9743 H         1 <0>         0.0703
@<TRIPOS>BOND
     1    1    2 1
     2    1   24 1
     3    1   25 1
     4    1   26 1
     5    2    3 1
     6    2    4 1
     7    2   27 1
     8    3   28 1
     9    3   29 1
    10    3   30 1
    11    4   10 1
    12    4    5 2
    13    5    6 1
    14    5   31 1
    15    6    7 2
    16    6    8 am
    17    8   13 1
    18    8    9 1
    19    9   10 2
    20    9   11 1
    21   11   12 1
    22   12   13 1
    23   12   32 1
    24   12   33 1
    25   13   14 1
    26   13   15 1
    27   15   16 1
    28   15   34 1
    29   15   35 1
    30   16   17 2
    31   16   18 am
    32   18   23 1
    33   18   19 1
    34   19   20 1
    35   19   36 1
    36   19   37 1
    37   20   21 1
    38   20   38 1
    39   20   39 1
    40   21   22 1
    41   21   40 1
    42   21   41 1
    43   22   23 1
    44   22   42 1
    45   22   43 1
    46   23   44 1
    47   23   45 1
@<TRIPOS>MOLECULE
ZINC32553412
   39    42     0     0     0
SMALL
USER_CHARGES
3-[(1R)-1-[(3S)-2,3-dihydro-1,4-benzodioxin-3-yl]ethyl]quinazolin-4-one
@<TRIPOS>ATOM
      1 C1          4.7436   -0.3295    0.5704 C.3       1 <0>        -0.1642
      2 C2          4.7814    1.0621   -0.0644 C.3       1 <0>         0.1285
      3 H1          5.6916    1.6010    0.2373 H         1 <0>         0.1401
      4 C3          3.5315    1.8436    0.3454 C.3       1 <0>         0.0427
      5 H2          3.4968    1.9660    1.4380 H         1 <0>         0.1126
      6 C4          3.5012    3.1922   -0.3866 C.3       1 <0>         0.0290
      7 O1          2.3150    3.8898    0.0084 O.3       1 <0>        -0.3005
      8 C5          1.1570    3.1744    0.0107 C.ar      1 <0>         0.0494
      9 C6         -0.0572    3.8446    0.0249 C.ar      1 <0>        -0.1132
     10 C7         -1.2413    3.1321    0.0308 C.ar      1 <0>        -0.1115
     11 C8         -1.2190    1.7498    0.0173 C.ar      1 <0>        -0.1143
     12 C9         -0.0126    1.0758    0.0080 C.ar      1 <0>        -0.1093
     13 C10         1.1795    1.7849    0.0004 C.ar      1 <0>         0.0493
     14 O2          2.3598    1.1075   -0.0220 O.3       1 <0>        -0.3110
     15 N1          4.8199    0.9326   -1.5231 N.am      1 <0>        -0.5481
     16 C11         3.8089    0.2953   -2.1692 C.2       1 <0>         0.3793
     17 N2          3.7677    0.1453   -3.4583 N.2       1 <0>        -0.5205
     18 C12         4.7562    0.6136   -4.2607 C.ar      1 <0>         0.1503
     19 C13         4.7152    0.4478   -5.6466 C.ar      1 <0>        -0.1102
     20 C14         5.7403    0.9398   -6.4227 C.ar      1 <0>        -0.0711
     21 C15         6.8167    1.6001   -5.8446 C.ar      1 <0>        -0.1375
     22 C16         6.8797    1.7760   -4.4797 C.ar      1 <0>        -0.0410
     23 C17         5.8524    1.2856   -3.6761 C.ar      1 <0>        -0.1998
     24 C18         5.8652    1.4441   -2.2143 C.2       1 <0>         0.5475
     25 O3          6.7799    2.0134   -1.6479 O.2       1 <0>        -0.5097
     26 H3          5.6422   -0.8914    0.2758 H         1 <0>         0.0721
     27 H4          3.8468   -0.8653    0.2260 H         1 <0>         0.0770
     28 H5          4.7147   -0.2322    1.6657 H         1 <0>         0.0859
     29 H6          4.3920    3.7773   -0.1142 H         1 <0>         0.1275
     30 H7          3.4939    3.0197   -1.4730 H         1 <0>         0.0732
     31 H8         -0.0774    4.9244    0.0310 H         1 <0>         0.1351
     32 H9         -2.1857    3.6559    0.0415 H         1 <0>         0.1339
     33 H10        -2.1460    1.1956    0.0183 H         1 <0>         0.1343
     34 H11         0.0021   -0.0041    0.0020 H         1 <0>         0.1368
     35 H12         2.9955   -0.1029   -1.5808 H         1 <0>         0.2072
     36 H13         3.8834   -0.0642   -6.1074 H         1 <0>         0.1408
     37 H14         5.7072    0.8104   -7.4944 H         1 <0>         0.1361
     38 H15         7.6114    1.9786   -6.4704 H         1 <0>         0.1350
     39 H16         7.7191    2.2906   -4.0357 H         1 <0>         0.1383
@<TRIPOS>BOND
     1    1    2 1
     2    1   26 1
     3    1   27 1
     4    1   28 1
     5    2    3 1
     6    2    4 1
     7    2   15 1
     8    4    5 1
     9    4   14 1
    10    4    6 1
    11    6    7 1
    12    6   29 1
    13    6   30 1
    14    7    8 1
    15    8   13 ar
    16    8    9 ar
    17    9   10 ar
    18    9   31 1
    19   10   11 ar
    20   10   32 1
    21   11   12 ar
    22   11   33 1
    23   12   13 ar
    24   12   34 1
    25   13   14 1
    26   15   24 am
    27   15   16 1
    28   16   17 2
    29   16   35 1
    30   17   18 1
    31   18   23 ar
    32   18   19 ar
    33   19   20 ar
    34   19   36 1
    35   20   21 ar
    36   20   37 1
    37   21   22 ar
    38   21   38 1
    39   22   23 ar
    40   22   39 1
    41   23   24 1
    42   24   25 2
@<TRIPOS>MOLECULE
ZINC40817089
   51    54     0     0     0
SMALL
USER_CHARGES

@<TRIPOS>ATOM
      1 C1         -1.1704    0.9714    0.9445 C.3       1 <0>        -0.1247
      2 C2         -0.1903    2.0579    1.3766 C.3       1 <0>        -0.1251
      3 C3          1.0087    2.0760    0.4238 C.3       1 <0>        -0.0362
      4 C4          2.0508    1.1102    0.9252 C.2       1 <0>         0.1821
      5 N1          3.3295    1.3255    1.0486 N.2       1 <0>        -0.2937
      6 N2          3.9044    0.2624    1.4925 N.2       1 <0>        -0.2808
      7 C5          3.0137   -0.6761    1.6760 C.2       1 <0>         0.1696
      8 N3          1.8136   -0.1591    1.3314 N.pl3     1 <0>        -0.4580
      9 C6          0.5119   -0.8241    1.3957 C.3       1 <0>         0.1032
     10 C7         -0.4212   -0.2173    0.3441 C.3       1 <0>        -0.1395
     11 C8          3.2757   -2.0729    2.1774 C.3       1 <0>         0.2282
     12 H1          2.3370   -2.5446    2.4678 H         1 <0>         0.0883
     13 C9          3.9626   -2.9061    1.0748 C.3       1 <0>        -0.1223
     14 C10         4.9863   -3.7585    1.8703 C.3       1 <0>        -0.1299
     15 C11         5.4198   -2.7685    2.9800 C.3       1 <0>         0.0984
     16 N4          4.1897   -2.0279    3.3281 N.am      1 <0>        -0.6063
     17 C12         3.9450   -1.4123    4.5019 C.2       1 <0>         0.5406
     18 O1          2.9349   -0.7562    4.6435 O.2       1 <0>        -0.5323
     19 C13         4.9266   -1.5393    5.6383 C.3       1 <0>        -0.0973
     20 C14         4.5151   -2.7050    6.5398 C.3       1 <0>        -0.1059
     21 C15         5.5116   -2.8339    7.6936 C.3       1 <0>        -0.1167
     22 C16         5.5202   -1.5382    8.5072 C.3       1 <0>        -0.1227
     23 C17         5.9317   -0.3725    7.6057 C.3       1 <0>        -0.1184
     24 C18         4.9352   -0.2436    6.4519 C.3       1 <0>        -0.1029
     25 H2         -1.7411    0.6366    1.8107 H         1 <0>         0.0702
     26 H3         -1.8539    1.3791    0.1998 H         1 <0>         0.0746
     27 H4         -0.6886    3.0271    1.3516 H         1 <0>         0.0816
     28 H5          0.1545    1.8535    2.3902 H         1 <0>         0.0659
     29 H6          0.6860    1.7785   -0.5739 H         1 <0>         0.0924
     30 H7          1.4303    3.0806    0.3874 H         1 <0>         0.1001
     31 H8          0.6375   -1.8889    1.1993 H         1 <0>         0.0925
     32 H9          0.0813   -0.6853    2.3873 H         1 <0>         0.0913
     33 H10        -1.1383   -0.9705    0.0177 H         1 <0>         0.0894
     34 H11         0.1656    0.1183   -0.5109 H         1 <0>         0.0813
     35 H12         3.2398   -3.5453    0.5677 H         1 <0>         0.0884
     36 H13         4.4721   -2.2574    0.3622 H         1 <0>         0.0874
     37 H14         4.5109   -4.6412    2.2981 H         1 <0>         0.0809
     38 H15         5.8330   -4.0379    1.2433 H         1 <0>         0.0925
     39 H16         5.7926   -3.3115    3.8484 H         1 <0>         0.0835
     40 H17         6.1812   -2.0857    2.6029 H         1 <0>         0.0784
     41 H18         5.9236   -1.7238    5.2383 H         1 <0>         0.0903
     42 H19         3.5180   -2.5205    6.9398 H         1 <0>         0.0696
     43 H20         4.5089   -3.6280    5.9601 H         1 <0>         0.0652
     44 H21         5.2185   -3.6643    8.3358 H         1 <0>         0.0669
     45 H22         6.5087   -3.0183    7.2936 H         1 <0>         0.0647
     46 H23         4.5232   -1.3537    8.9072 H         1 <0>         0.0631
     47 H24         6.2302   -1.6300    9.3292 H         1 <0>         0.0642
     48 H25         5.9379    0.5505    8.1854 H         1 <0>         0.0667
     49 H26         6.9288   -0.5570    7.2057 H         1 <0>         0.0633
     50 H27         5.2284    0.5868    5.8097 H         1 <0>         0.0643
     51 H28         3.9381   -0.0592    6.8519 H         1 <0>         0.0736
@<TRIPOS>BOND
     1    1   10 1
     2    1    2 1
     3    1   25 1
     4    1   26 1
     5    2    3 1
     6    2   27 1
     7    2   28 1
     8    3    4 1
     9    3   29 1
    10    3   30 1
    11    4    8 1
    12    4    5 2
    13    5    6 1
    14    6    7 2
    15    7    8 1
    16    7   11 1
    17    8    9 1
    18    9   10 1
    19    9   31 1
    20    9   32 1
    21   10   33 1
    22   10   34 1
    23   11   12 1
    24   11   16 1
    25   11   13 1
    26   13   14 1
    27   13   35 1
    28   13   36 1
    29   14   15 1
    30   14   37 1
    31   14   38 1
    32   15   16 1
    33   15   39 1
    34   15   40 1
    35   16   17 am
    36   17   18 2
    37   17   19 1
    38   19   24 1
    39   19   20 1
    40   19   41 1
    41   20   21 1
    42   20   42 1
    43   20   43 1
    44   21   22 1
    45   21   44 1
    46   21   45 1
    47   22   23 1
    48   22   46 1
    49   22   47 1
    50   23   24 1
    51   23   48 1
    52   23   49 1
    53   24   50 1
    54   24   51 1
@<TRIPOS>MOLECULE
ZINC62089674
   41    43     0     0     0
SMALL
USER_CHARGES

@<TRIPOS>ATOM
      1 C1         -0.0829    1.5080    0.0228 C.3       1 <0>        -0.1107
      2 C2         -0.0450    0.0016    0.0102 C.ar      1 <0>        -0.0936
      3 C3         -0.0408   -0.6792   -1.1934 C.ar      1 <0>        -0.1040
      4 C4         -0.0072   -2.0607   -1.2128 C.ar      1 <0>        -0.1222
      5 C5          0.0227   -2.7716   -0.0221 C.ar      1 <0>         0.0872
      6 C6          0.0209   -2.0837    1.1882 C.ar      1 <0>         0.0826
      7 C7         -0.0088   -0.6984    1.2019 C.ar      1 <0>        -0.1114
      8 N1          0.0588   -2.7998    2.3970 N.am      1 <0>        -0.5526
      9 C8         -0.2137   -4.2464    2.3441 C.3       1 <0>         0.0577
     10 C9          0.5162   -4.8112    1.1170 C.3       1 <0>         0.0500
     11 O1          0.0505   -4.1300   -0.0503 O.3       1 <0>        -0.3088
     12 C10         0.3352   -2.1844    3.5637 C.2       1 <0>         0.5143
     13 O2          0.6592   -1.0155    3.5710 O.2       1 <0>        -0.4945
     14 C11         0.2419   -2.9485    4.8593 C.3       1 <0>         0.1220
     15 H1         -0.6348   -3.5961    4.8452 H         1 <0>         0.1123
     16 C12         1.5163   -3.7947    5.0626 C.3       1 <0>        -0.1253
     17 C13         2.3794   -2.9045    5.9953 C.3       1 <0>        -0.1288
     18 C14         1.2971   -2.2507    6.8902 C.3       1 <0>         0.0832
     19 N2          0.1523   -2.0104    5.9878 N.am      1 <0>        -0.5822
     20 C15        -0.8120   -1.0858    6.1660 C.2       1 <0>         0.5051
     21 O3         -1.7061   -0.9778    5.3538 O.2       1 <0>        -0.4662
     22 C16        -0.7792   -0.1862    7.3746 C.3       1 <0>         0.4594
     23 F1         -1.8753    0.6824    7.3393 F         1 <0>        -0.1487
     24 F2         -0.8374   -0.9636    8.5363 F         1 <0>        -0.1653
     25 F3          0.4056    0.5577    7.3702 F         1 <0>        -0.1623
     26 H2          0.9352    1.8972    0.0099 H         1 <0>         0.0707
     27 H3         -0.6197    1.8654   -0.8560 H         1 <0>         0.0679
     28 H4         -0.5916    1.8512    0.9237 H         1 <0>         0.0664
     29 H5         -0.0642   -0.1289   -2.1224 H         1 <0>         0.1312
     30 H6         -0.0045   -2.5872   -2.1558 H         1 <0>         0.1363
     31 H7         -0.0078   -0.1665    2.1419 H         1 <0>         0.1621
     32 H8          0.1587   -4.7263    3.2492 H         1 <0>         0.1070
     33 H9         -1.2858   -4.4176    2.2480 H         1 <0>         0.0945
     34 H10         1.5895   -4.6558    1.2268 H         1 <0>         0.0717
     35 H11         0.3068   -5.8770    1.0260 H         1 <0>         0.1267
     36 H12         1.2773   -4.7418    5.5462 H         1 <0>         0.1024
     37 H13         2.0233   -3.9628    4.1124 H         1 <0>         0.0926
     38 H14         3.0642   -3.5098    6.5893 H         1 <0>         0.1019
     39 H15         2.9216   -2.1508    5.4242 H         1 <0>         0.0863
     40 H16         1.0091   -2.9286    7.6937 H         1 <0>         0.0922
     41 H17         1.6618   -1.3088    7.2999 H         1 <0>         0.0927
@<TRIPOS>BOND
     1    1    2 1
     2    1   26 1
     3    1   27 1
     4    1   28 1
     5    2    7 ar
     6    2    3 ar
     7    3    4 ar
     8    3   29 1
     9    4    5 ar
    10    4   30 1
    11    5   11 1
    12    5    6 ar
    13    6    7 ar
    14    6    8 1
    15    7   31 1
    16    8    9 1
    17    8   12 am
    18    9   10 1
    19    9   32 1
    20    9   33 1
    21   10   11 1
    22   10   34 1
    23   10   35 1
    24   12   13 2
    25   12   14 1
    26   14   15 1
    27   14   19 1
    28   14   16 1
    29   16   17 1
    30   16   36 1
    31   16   37 1
    32   17   18 1
    33   17   38 1
    34   17   39 1
    35   18   19 1
    36   18   40 1
    37   18   41 1
    38   19   20 am
    39   20   21 2
    40   20   22 1
    41   22   23 1
    42   22   24 1
    43   22   25 1
@<TRIPOS>MOLECULE
ZINC66262349
   33    35     0     0     0
SMALL
USER_CHARGES

@<TRIPOS>ATOM
      1 C1          1.9015   -0.7530   -5.9750 C.3       1 <0>        -0.0726
      2 C2          1.9158   -1.3655   -4.5982 C.2       1 <0>         0.2514
      3 N1          0.8663   -1.9230   -3.9839 N.2       1 <0>        -0.5316
      4 C3          1.2161   -2.3566   -2.8048 C.2       1 <0>         0.2858
      5 O1          2.5154   -2.0864   -2.6271 O.3       1 <0>        -0.0857
      6 N2          2.9531   -1.4433   -3.8149 N.2       1 <0>        -0.3351
      7 C4          0.3132   -3.0436   -1.8129 C.3       1 <0>        -0.0169
      8 H1         -0.5997   -3.3650   -2.3143 H         1 <0>         0.1431
      9 C5         -0.0394   -2.0712   -0.6855 C.3       1 <0>        -0.1352
     10 S1          1.1638   -4.4887   -1.1209 S.3       1 <0>        -0.0119
     11 C6          1.2682   -5.6109   -2.4754 C.ar      1 <0>        -0.0946
     12 C7          0.6424   -5.3093   -3.6775 C.ar      1 <0>        -0.1204
     13 C8          0.7256   -6.1916   -4.7434 C.ar      1 <0>         0.0808
     14 C9          1.4378   -7.3776   -4.6076 C.ar      1 <0>         0.0637
     15 C10         2.0606   -7.6775   -3.4052 C.ar      1 <0>        -0.0860
     16 C11         1.9818   -6.7960   -2.3433 C.ar      1 <0>        -0.0132
     17 Cl1         2.7694   -7.1722   -0.8428 Cl        1 <0>        -0.0345
     18 O2          1.5370   -8.2532   -5.6466 O.3       1 <0>        -0.2996
     19 C12         0.5931   -8.0976   -6.7118 C.3       1 <0>         0.0192
     20 C13         0.5206   -6.6085   -7.0758 C.3       1 <0>         0.0185
     21 O3          0.1033   -5.8830   -5.9143 O.3       1 <0>        -0.2989
     22 H2          2.1384   -1.5174   -6.7152 H         1 <0>         0.0965
     23 H3          0.9127   -0.3429   -6.1800 H         1 <0>         0.0988
     24 H4          2.6432    0.0441   -6.0258 H         1 <0>         0.0927
     25 H5          0.8723   -1.7603   -0.1754 H         1 <0>         0.0796
     26 H6         -0.5385   -1.1967   -1.1028 H         1 <0>         0.0879
     27 H7         -0.7032   -2.5639    0.0250 H         1 <0>         0.0960
     28 H8          0.0902   -4.3870   -3.7820 H         1 <0>         0.1466
     29 H9          2.6116   -8.6004   -3.2995 H         1 <0>         0.1545
     30 H10         0.9190   -8.6725   -7.5786 H         1 <0>         0.1286
     31 H11        -0.3878   -8.4449   -6.3873 H         1 <0>         0.0829
     32 H12         1.5031   -6.2596   -7.3938 H         1 <0>         0.0809
     33 H13        -0.2003   -6.4613   -7.8799 H         1 <0>         0.1288
@<TRIPOS>BOND
     1    1    2 1
     2    1   22 1
     3    1   23 1
     4    1   24 1
     5    2    6 2
     6    2    3 1
     7    3    4 2
     8    4    5 1
     9    4    7 1
    10    5    6 1
    11    7    8 1
    12    7    9 1
    13    7   10 1
    14    9   25 1
    15    9   26 1
    16    9   27 1
    17   10   11 1
    18   11   16 ar
    19   11   12 ar
    20   12   13 ar
    21   12   28 1
    22   13   21 1
    23   13   14 ar
    24   14   15 ar
    25   14   18 1
    26   15   16 ar
    27   15   29 1
    28   16   17 1
    29   18   19 1
    30   19   20 1
    31   19   30 1
    32   19   31 1
    33   20   21 1
    34   20   32 1
    35   20   33 1
@<TRIPOS>MOLECULE
ZINC09435670
   67    70     0     0     0
SMALL
USER_CHARGES
3-(3,5-dimethylphenyl)sulfonyl-7-(4-ethylpiperazin-1-yl)-6-fluoro-1-propyl-quinolin-4-one
@<TRIPOS>ATOM
      1 C1         -3.2002    7.0941    1.5040 C.3       1 <0>        -0.1520
      2 C2         -1.8632    6.3506    1.4882 C.3       1 <0>        -0.1477
      3 C3         -1.3698    6.2189    0.0459 C.3       1 <0>         0.0816
      4 N1         -0.0896    5.5070    0.0307 N.pl3     1 <0>        -0.4870
      5 C4          1.0636    6.2196    0.0231 C.2       1 <0>         0.3043
      6 C5          2.2777    5.6332    0.0087 C.2       1 <0>        -0.8446
      7 C6          2.3851    4.2220    0.0010 C.2       1 <0>         0.4578
      8 O1          3.4751    3.6731   -0.0125 O.2       1 <0>        -0.4537
      9 C7          1.1401    3.4382    0.0092 C.ar      1 <0>        -0.1376
     10 C8         -0.0865    4.1288    0.0242 C.ar      1 <0>         0.1847
     11 C9         -1.2746    3.4095    0.0321 C.ar      1 <0>        -0.1666
     12 C10        -1.2384    2.0246    0.0189 C.ar      1 <0>         0.0916
     13 C11        -0.0162    1.3468    0.0094 C.ar      1 <0>         0.1111
     14 C12         1.1598    2.0415    0.0019 C.ar      1 <0>        -0.0585
     15 F1          0.0021   -0.0041    0.0020 F         1 <0>        -0.1161
     16 N2         -2.4296    1.3020    0.0206 N.pl3     1 <0>        -0.4944
     17 C13        -3.1999    1.5534   -1.2054 C.3       1 <0>         0.0287
     18 C14        -4.4589    0.6831   -1.2011 C.3       1 <0>        -0.0035
     19 C15        -4.4890    0.7386    1.2185 C.3       1 <0>         0.0043
     20 C16        -3.2300    1.6088    1.2143 C.3       1 <0>         0.0277
     21 C17        -6.5153    0.2280   -0.0057 C.3       1 <0>        -0.0044
     22 C18        -7.1666    0.3151   -1.3874 C.3       1 <0>        -0.1922
     23 S1          3.7335    6.6258   -0.0000 S.o2      1 <0>         2.6060
     24 O2          4.5642    6.1192   -1.0357 O.2       1 <0>        -0.9168
     25 O3          3.3024    7.9793    0.0375 O.2       1 <0>        -0.9447
     26 C19         4.5786    6.3243    1.5164 C.ar      1 <0>        -0.6485
     27 C20         4.3077    7.1037    2.6254 C.ar      1 <0>        -0.0338
     28 C21         4.9680    6.8646    3.8162 C.ar      1 <0>        -0.1035
     29 C22         5.9050    5.8514    3.8956 C.ar      1 <0>        -0.0637
     30 C23         6.1797    5.0754    2.7851 C.ar      1 <0>        -0.1002
     31 C24         5.5167    5.3120    1.5954 C.ar      1 <0>        -0.0118
     32 C25         7.2016    3.9712    2.8715 C.3       1 <0>        -0.1188
     33 C26         4.6689    7.7109    5.0267 C.3       1 <0>        -0.1167
     34 H1         -3.0692    8.0866    1.0728 H         1 <0>         0.0670
     35 H2         -3.9324    6.5376    0.9189 H         1 <0>         0.0543
     36 H3         -3.5517    7.1879    2.5315 H         1 <0>         0.0686
     37 H4         -1.9942    5.3581    1.9194 H         1 <0>         0.0689
     38 H5         -1.1310    6.9071    2.0732 H         1 <0>         0.0810
     39 H6         -1.2388    7.2114   -0.3853 H         1 <0>         0.1126
     40 H7         -2.1020    5.6624   -0.5392 H         1 <0>         0.0961
     41 H8          1.0078    7.2982    0.0291 H         1 <0>         0.1921
     42 H9         -2.2223    3.9274    0.0440 H         1 <0>         0.1446
     43 H10         2.1015    1.5128   -0.0092 H         1 <0>         0.1674
     44 H11        -3.4846    2.6047   -1.2468 H         1 <0>         0.0663
     45 H12        -2.5904    1.3069   -2.0748 H         1 <0>         0.1281
     46 H13        -4.1738   -0.3688   -1.1872 H         1 <0>         0.1434
     47 H14        -5.0464    0.8892   -2.0958 H         1 <0>         0.1426
     48 H15        -4.2043   -0.3128    1.2599 H         1 <0>         0.1430
     49 H16        -5.0984    0.9848    2.0881 H         1 <0>         0.1391
     50 H17        -2.6425    1.4027    2.1090 H         1 <0>         0.1280
     51 H18        -3.5148    2.6609    1.2006 H         1 <0>         0.0666
     52 H19        -6.3071   -0.8150    0.2328 H         1 <0>         0.1324
     53 H20        -7.1913    0.6437    0.7415 H         1 <0>         0.1296
     54 H21        -8.0985   -0.2502   -1.3860 H         1 <0>         0.1073
     55 H22        -7.3747    1.3582   -1.6258 H         1 <0>         0.0795
     56 H23        -6.4906   -0.1005   -2.1346 H         1 <0>         0.0834
     57 H24         3.5781    7.8974    2.5624 H         1 <0>         0.1386
     58 H25         6.4228    5.6664    4.8251 H         1 <0>         0.1316
     59 H26         5.7313    4.7057    0.7278 H         1 <0>         0.1475
     60 H27         8.1846    4.3648    2.6130 H         1 <0>         0.0768
     61 H28         7.2241    3.5757    3.8870 H         1 <0>         0.0697
     62 H29         6.9352    3.1744    2.1770 H         1 <0>         0.0729
     63 H30         5.3337    8.5746    5.0394 H         1 <0>         0.0765
     64 H31         3.6337    8.0498    4.9863 H         1 <0>         0.0687
     65 H32         4.8230    7.1205    5.9299 H         1 <0>         0.0700
     66 N3         -5.2651    1.0173   -0.0083 N.4       1 <0>        -0.3988
     67 H33        -5.5012    2.0162   -0.0342 H         1 <0>         0.4236
@<TRIPOS>BOND
     1    1    2 1
     2    1   34 1
     3    1   35 1
     4    1   36 1
     5    2    3 1
     6    2   37 1
     7    2   38 1
     8    3    4 1
     9    3   39 1
    10    3   40 1
    11    4   10 1
    12    4    5 1
    13    5    6 2
    14    5   41 1
    15    6    7 1
    16    6   23 1
    17    7    8 2
    18    7    9 1
    19    9   14 ar
    20    9   10 ar
    21   10   11 ar
    22   11   12 ar
    23   11   42 1
    24   12   13 ar
    25   12   16 1
    26   13   14 ar
    27   13   15 1
    28   14   43 1
    29   16   20 1
    30   16   17 1
    31   17   18 1
    32   17   44 1
    33   17   45 1
    34   18   46 1
    35   18   47 1
    36   18   66 1
    37   19   20 1
    38   19   48 1
    39   19   49 1
    40   19   66 1
    41   20   50 1
    42   20   51 1
    43   21   22 1
    44   21   52 1
    45   21   53 1
    46   21   66 1
    47   22   54 1
    48   22   55 1
    49   22   56 1
    50   23   24 2
    51   23   25 2
    52   23   26 1
    53   26   31 ar
    54   26   27 ar
    55   27   28 ar
    56   27   57 1
    57   28   29 ar
    58   28   33 1
    59   29   30 ar
    60   29   58 1
    61   30   31 ar
    62   30   32 1
    63   31   59 1
    64   32   60 1
    65   32   61 1
    66   32   62 1
    67   33   63 1
    68   33   64 1
    69   33   65 1
    70   66   67 1
@<TRIPOS>MOLECULE
ZINC14963330
   74    79     0     0     0
SMALL
USER_CHARGES
10-(3,4-dihydro-1H-isoquinoline-2-carbonyl)-3-[[(1S,5R)-7,7-dimethyl-4-bicyclo[3.1.1]hept-3-enyl]methyl]-9-methoxy-1,2,4,5-tetrahydropyrido[1,6-d][1,4]diazepin-7-one
@<TRIPOS>ATOM
      1 C1          2.7691   -4.7244   -3.5270 C.3       1 <0>        -0.1484
      2 C2          1.4196   -5.1938   -2.9799 C.3       1 <0>        -0.0666
      3 C3          1.5154   -6.4131   -2.0468 C.3       1 <0>        -0.1120
      4 H1          1.2904   -7.3764   -2.5046 H         1 <0>         0.0945
      5 C4          2.7934   -6.4134   -1.1969 C.3       1 <0>        -0.0896
      6 C5          3.0409   -5.0284   -0.6499 C.2       1 <0>        -0.0624
      7 C6          2.1721   -4.0723   -0.8861 C.2       1 <0>        -0.1935
      8 C7          0.9492   -4.4273   -1.7138 C.3       1 <0>        -0.0785
      9 H2          0.2431   -3.6103   -1.8624 H         1 <0>         0.0934
     10 C8          0.3445   -5.7696   -1.2762 C.3       1 <0>        -0.1315
     11 C9          2.3776   -2.6784   -0.3514 C.3       1 <0>         0.0448
     12 C10         1.4867   -1.0985    1.2534 C.3       1 <0>        -0.0161
     13 C11         2.8799   -0.5293    1.5131 C.3       1 <0>        -0.1148
     14 C12         3.2610   -0.6493    2.9685 C.2       1 <0>         0.1989
     15 C13         4.1381    0.3055    3.4624 C.2       1 <0>        -0.2124
     16 C14         4.5907    0.2190    4.8511 C.2       1 <0>         0.2505
     17 C15         4.1235   -0.8308    5.6161 C.2       1 <0>        -0.3411
     18 C16         3.2371   -1.7435    5.0426 C.2       1 <0>         0.5384
     19 O1          2.8340   -2.6775    5.7168 O.2       1 <0>        -0.5260
     20 N1          2.8093   -1.6272    3.7637 N.am      1 <0>        -0.4998
     21 C17         1.8282   -2.6194    3.3126 C.3       1 <0>         0.0541
     22 C18         2.2605   -3.2629    1.9940 C.3       1 <0>        -0.0195
     23 O2          5.4388    1.1379    5.3685 O.3       1 <0>        -0.2903
     24 C19         5.9119    0.9084    6.6973 C.3       1 <0>         0.0192
     25 C20         4.6107    1.3983    2.5948 C.2       1 <0>         0.5841
     26 O3          5.6729    1.2956    2.0116 O.2       1 <0>        -0.5102
     27 N2          3.8658    2.5118    2.4474 N.am      1 <0>        -0.6034
     28 C21         4.2603    3.5787    1.5126 C.3       1 <0>         0.1084
     29 C22         3.1849    3.6628    0.4237 C.3       1 <0>        -0.0972
     30 C23         1.8074    3.6818    1.0322 C.ar      1 <0>        -0.0717
     31 C24         0.7652    4.1675    0.2515 C.ar      1 <0>        -0.1164
     32 C25        -0.5229    4.2010    0.7430 C.ar      1 <0>        -0.1112
     33 C26        -0.7823    3.7484    2.0235 C.ar      1 <0>        -0.1157
     34 C27         0.2510    3.2699    2.8022 C.ar      1 <0>        -0.1144
     35 C28         1.5487    3.2385    2.3096 C.ar      1 <0>        -0.1042
     36 C29         2.6329    2.7123    3.2163 C.3       1 <0>         0.1496
     37 C30         0.3444   -5.3234   -4.0607 C.3       1 <0>        -0.1341
     38 H3          3.2761   -5.5601   -4.0093 H         1 <0>         0.0614
     39 H4          2.6093   -3.9280   -4.2539 H         1 <0>         0.0574
     40 H5          3.3832   -4.3507   -2.7077 H         1 <0>         0.0614
     41 H6          3.6394   -6.7161   -1.8140 H         1 <0>         0.0948
     42 H7          2.6783   -7.1145   -0.3703 H         1 <0>         0.0944
     43 H8          3.9272   -4.8250   -0.0672 H         1 <0>         0.1239
     44 H9         -0.6345   -5.9751   -1.7092 H         1 <0>         0.0962
     45 H10         0.3789   -5.9384   -0.1999 H         1 <0>         0.0675
     46 H11         2.0234   -1.9526   -1.0834 H         1 <0>         0.1409
     47 H12         3.4384   -2.5148   -0.1615 H         1 <0>         0.1328
     48 H13         1.0174   -0.5596    0.4303 H         1 <0>         0.1526
     49 H14         0.8770   -1.0013    2.1516 H         1 <0>         0.1423
     50 H15         3.6057   -1.0732    0.9085 H         1 <0>         0.1219
     51 H16         2.8948    0.5221    1.2260 H         1 <0>         0.1402
     52 H17         4.4394   -0.9443    6.6426 H         1 <0>         0.1678
     53 H18         0.8640   -2.1306    3.1726 H         1 <0>         0.1099
     54 H19         1.7290   -3.3941    4.0729 H         1 <0>         0.1580
     55 H20         1.9373   -4.3036    1.9681 H         1 <0>         0.1542
     56 H21         3.3447   -3.2100    1.8957 H         1 <0>         0.1386
     57 H22         6.4996   -0.0092    6.7203 H         1 <0>         0.0708
     58 H23         6.5342    1.7465    7.0112 H         1 <0>         0.1161
     59 H24         5.0627    0.8131    7.3739 H         1 <0>         0.0703
     60 H25         4.3258    4.5285    2.0433 H         1 <0>         0.0838
     61 H26         5.2245    3.3386    1.0645 H         1 <0>         0.1051
     62 H27         3.2730    2.8006   -0.2373 H         1 <0>         0.0790
     63 H28         3.3340    4.5746   -0.1548 H         1 <0>         0.0942
     64 H29         0.9657    4.5213   -0.7489 H         1 <0>         0.1252
     65 H30        -1.3268    4.5801    0.1295 H         1 <0>         0.1264
     66 H31        -1.7897    3.7691    2.4122 H         1 <0>         0.1267
     67 H32         0.0489    2.9168    3.8026 H         1 <0>         0.1234
     68 H33         2.3159    1.7627    3.6475 H         1 <0>         0.0886
     69 H34         2.8168    3.4296    4.0161 H         1 <0>         0.0890
     70 H35        -0.5472   -5.7820   -3.6331 H         1 <0>         0.0620
     71 H36         0.0953   -4.3346   -4.4457 H         1 <0>         0.0623
     72 H37         0.7191   -5.9459   -4.8732 H         1 <0>         0.0659
     73 N3          1.6012   -2.5276    0.8983 N.4       1 <0>        -0.3970
     74 H38         0.6604   -2.9131    0.7553 H         1 <0>         0.4370
@<TRIPOS>BOND
     1    1    2 1
     2    1   38 1
     3    1   39 1
     4    1   40 1
     5    2    8 1
     6    2    3 1
     7    2   37 1
     8    3    4 1
     9    3   10 1
    10    3    5 1
    11    5    6 1
    12    5   41 1
    13    5   42 1
    14    6    7 2
    15    6   43 1
    16    7    8 1
    17    7   11 1
    18    8    9 1
    19    8   10 1
    20   10   44 1
    21   10   45 1
    22   11   46 1
    23   11   47 1
    24   11   73 1
    25   12   13 1
    26   12   48 1
    27   12   49 1
    28   12   73 1
    29   13   14 1
    30   13   50 1
    31   13   51 1
    32   14   20 1
    33   14   15 2
    34   15   16 1
    35   15   25 1
    36   16   17 2
    37   16   23 1
    38   17   18 1
    39   17   52 1
    40   18   19 2
    41   18   20 am
    42   20   21 1
    43   21   22 1
    44   21   53 1
    45   21   54 1
    46   22   55 1
    47   22   56 1
    48   22   73 1
    49   23   24 1
    50   24   57 1
    51   24   58 1
    52   24   59 1
    53   25   26 2
    54   25   27 am
    55   27   36 1
    56   27   28 1
    57   28   29 1
    58   28   60 1
    59   28   61 1
    60   29   30 1
    61   29   62 1
    62   29   63 1
    63   30   35 ar
    64   30   31 ar
    65   31   32 ar
    66   31   64 1
    67   32   33 ar
    68   32   65 1
    69   33   34 ar
    70   33   66 1
    71   34   35 ar
    72   34   67 1
    73   35   36 1
    74   36   68 1
    75   36   69 1
    76   37   70 1
    77   37   71 1
    78   37   72 1
    79   73   74 1
@<TRIPOS>MOLECULE
ZINC34830264
   66    70     0     0     0
SMALL
USER_CHARGES

@<TRIPOS>ATOM
      1 C1         -0.7447    1.6126    0.2857 C.3       1 <0>        -0.1323
      2 C2         -0.3837    0.1520    0.2000 C.ar      1 <0>        -0.0504
      3 C3         -0.4717   -0.5120   -1.0095 C.ar      1 <0>        -0.1030
      4 C4         -0.1406   -1.8516   -1.0881 C.ar      1 <0>        -0.0884
      5 C5          0.2791   -2.5274    0.0427 C.ar      1 <0>        -0.1053
      6 C6          0.3680   -1.8634    1.2515 C.ar      1 <0>        -0.1205
      7 C7          0.0409   -0.5223    1.3293 C.ar      1 <0>        -0.1312
      8 C8          0.1428    0.2030    2.6463 C.3       1 <0>         0.1515
      9 H1         -0.6072    0.9929    2.6875 H         1 <0>         0.1531
     10 C9          1.5346    0.8112    2.7890 C.2       1 <0>        -0.1364
     11 C10         2.2246    1.4309    1.7502 C.2       1 <0>        -0.1484
     12 C11         3.4594    1.9413    1.9675 C.2       1 <0>        -0.1513
     13 S1          3.7163    1.5630    3.6953 S.3       1 <0>         0.1427
     14 C12         2.1679    0.7602    3.9947 C.2       1 <0>        -0.1957
     15 C13         1.6336    0.1561    5.2522 C.3       1 <0>        -0.0583
     16 C14         0.1284   -0.0872    5.0466 C.3       1 <0>        -0.0079
     17 N1         -0.0771   -0.7425    3.7472 N.4       1 <0>        -0.3833
     18 C15        -1.4507   -1.2581    3.6743 C.3       1 <0>         0.0002
     19 C16        -1.6481   -2.3360    4.7421 C.3       1 <0>        -0.1740
     20 C17        -3.0573   -2.8650    4.6673 C.2       1 <0>         0.5236
     21 O1         -3.8277   -2.4234    3.8413 O.2       1 <0>        -0.5243
     22 N2         -3.4613   -3.8288    5.5183 N.am      1 <0>        -0.6020
     23 C18        -2.5404   -4.3690    6.5283 C.3       1 <0>         0.0894
     24 C19        -2.4697   -5.8921    6.3624 C.3       1 <0>         0.0732
     25 N3         -3.8392   -6.4214    6.2973 N.am      1 <0>        -0.6059
     26 C20        -4.7601   -5.8812    5.2873 C.3       1 <0>         0.1245
     27 H2         -5.7517   -6.3110    5.4292 H         1 <0>         0.1193
     28 C21        -4.8324   -4.3542    5.4569 C.3       1 <0>         0.1027
     29 C22        -4.2467   -6.2256    3.8878 C.3       1 <0>        -0.1563
     30 C23        -4.2432   -7.3852    7.1483 C.2       1 <0>         0.6081
     31 O2         -5.3451   -7.8861    7.0216 O.2       1 <0>        -0.5067
     32 C24        -3.3550   -7.8305    8.2271 C.2       1 <0>        -0.0916
     33 C25        -3.6799   -8.7042    9.2248 C.2       1 <0>        -0.1038
     34 C26        -2.5371   -8.8427   10.0279 C.2       1 <0>        -0.2176
     35 C27        -1.5769   -8.0574    9.4920 C.2       1 <0>        -0.0099
     36 O3         -2.0719   -7.4530    8.4042 O.3       1 <0>        -0.1665
     37 H3          0.1507    2.2173    0.1418 H         1 <0>         0.0837
     38 H4         -1.4736    1.8528   -0.4884 H         1 <0>         0.0832
     39 H5         -1.1725    1.8243    1.2657 H         1 <0>         0.0675
     40 H6         -0.7996    0.0159   -1.8928 H         1 <0>         0.1376
     41 H7         -0.2101   -2.3705   -2.0327 H         1 <0>         0.1365
     42 H8          0.5372   -3.5744   -0.0186 H         1 <0>         0.1347
     43 H9          0.6955   -2.3914    2.1349 H         1 <0>         0.1119
     44 H10         1.7747    1.5039    0.7711 H         1 <0>         0.1440
     45 H11         4.1182    2.4461    1.2764 H         1 <0>         0.1991
     46 H12         2.1374   -0.7897    5.4516 H         1 <0>         0.1115
     47 H13         1.7872    0.8410    6.0861 H         1 <0>         0.1311
     48 H14        -0.2498   -0.7291    5.8423 H         1 <0>         0.1435
     49 H15        -0.4008    0.8656    5.0611 H         1 <0>         0.1384
     50 H16        -2.1542   -0.4434    3.8460 H         1 <0>         0.1425
     51 H17        -1.6257   -1.6875    2.6879 H         1 <0>         0.1456
     52 H18        -0.9446   -3.1507    4.5704 H         1 <0>         0.1176
     53 H19        -1.4731   -1.9066    5.7285 H         1 <0>         0.1188
     54 H20        -1.5488   -3.9392    6.3863 H         1 <0>         0.0947
     55 H21        -2.9078   -4.1263    7.5254 H         1 <0>         0.0864
     56 H22        -1.9393   -6.1356    5.4418 H         1 <0>         0.0781
     57 H23        -1.9487   -6.3291    7.2143 H         1 <0>         0.1304
     58 H24        -5.3592   -4.1104    6.3795 H         1 <0>         0.0827
     59 H25        -5.3549   -3.9146    4.6073 H         1 <0>         0.1130
     60 H26        -4.1853   -7.3085    3.7796 H         1 <0>         0.0661
     61 H27        -4.9312   -5.8240    3.1407 H         1 <0>         0.0748
     62 H28        -3.2577   -5.7897    3.7461 H         1 <0>         0.0532
     63 H29        -4.6318   -9.1938    9.3682 H         1 <0>         0.1631
     64 H30        -2.4431   -9.4605   10.9088 H         1 <0>         0.1609
     65 H31        -0.5743   -7.9392    9.8758 H         1 <0>         0.2129
     66 H32         0.5704   -1.5112    3.6589 H         1 <0>         0.4193
@<TRIPOS>BOND
     1    1    2 1
     2    1   37 1
     3    1   38 1
     4    1   39 1
     5    2    7 ar
     6    2    3 ar
     7    3    4 ar
     8    3   40 1
     9    4    5 ar
    10    4   41 1
    11    5    6 ar
    12    5   42 1
    13    6    7 ar
    14    6   43 1
    15    7    8 1
    16    8    9 1
    17    8   17 1
    18    8   10 1
    19   10   14 2
    20   10   11 1
    21   11   12 2
    22   11   44 1
    23   12   13 1
    24   12   45 1
    25   13   14 1
    26   14   15 1
    27   15   16 1
    28   15   46 1
    29   15   47 1
    30   16   17 1
    31   16   48 1
    32   16   49 1
    33   17   18 1
    34   17   66 1
    35   18   19 1
    36   18   50 1
    37   18   51 1
    38   19   20 1
    39   19   52 1
    40   19   53 1
    41   20   21 2
    42   20   22 am
    43   22   28 1
    44   22   23 1
    45   23   24 1
    46   23   54 1
    47   23   55 1
    48   24   25 1
    49   24   56 1
    50   24   57 1
    51   25   26 1
    52   25   30 am
    53   26   27 1
    54   26   28 1
    55   26   29 1
    56   28   58 1
    57   28   59 1
    58   29   60 1
    59   29   61 1
    60   29   62 1
    61   30   31 2
    62   30   32 1
    63   32   36 1
    64   32   33 2
    65   33   34 1
    66   33   63 1
    67   34   35 2
    68   34   64 1
    69   35   36 1
    70   35   65 1
@<TRIPOS>MOLECULE
ZINC40010595
   61    65     0     0     0
SMALL
USER_CHARGES

@<TRIPOS>ATOM
      1 C1         -0.0184    1.5028    0.0103 C.3       1 <0>        -0.1602
      2 C2          0.0021   -0.0041    0.0020 C.ar      1 <0>         0.1252
      3 C3          0.0052   -0.6668   -1.2256 C.ar      1 <0>        -0.1594
      4 C4          0.0233   -2.0229   -1.2973 C.ar      1 <0>         0.0095
      5 C5          0.0403   -2.7949   -0.0543 C.ar      1 <0>        -0.1814
      6 C6          0.0593   -4.1579   -0.0775 C.2       1 <0>         0.1211
      7 C7          0.0764   -4.8756    1.2579 C.3       1 <0>        -0.1506
      8 H1         -0.7942   -5.5304    1.2969 H         1 <0>         0.1774
      9 C8          0.0710   -4.0220    2.5060 C.2       1 <0>         0.5218
     10 O1          0.0846   -4.5456    3.6039 O.2       1 <0>        -0.4158
     11 N1          0.0521   -2.7040    2.3993 N.am      1 <0>        -0.5927
     12 C9          0.0370   -2.0688    1.2276 C.ar      1 <0>         0.3600
     13 C10         0.0223   -0.6624    1.1903 C.ar      1 <0>        -0.1976
     14 C11         0.0233    0.1198    2.4785 C.3       1 <0>        -0.1316
     15 C12         1.3247   -5.7593    1.2999 C.3       1 <0>         0.2156
     16 H2          2.2133   -5.1370    1.1939 H         1 <0>         0.1215
     17 C13         1.2723   -6.7560    0.1690 C.ar      1 <0>        -0.1146
     18 C14         1.4633   -6.2792   -1.1214 C.ar      1 <0>        -0.1924
     19 C15         1.4170   -7.1398   -2.2025 C.ar      1 <0>         0.1138
     20 C16         1.1753   -8.4944   -1.9921 C.ar      1 <0>         0.1288
     21 C17         0.9898   -8.9645   -0.7057 C.ar      1 <0>        -0.1700
     22 C18         1.0431   -8.0973    0.3796 C.ar      1 <0>        -0.0396
     23 C19         0.8585   -8.6887    1.7526 C.3       1 <0>        -0.1045
     24 C20         0.4647   -7.6106    2.7610 C.3       1 <0>         0.1083
     25 N2          1.3767   -6.4699    2.5819 N.am      1 <0>        -0.6012
     26 C21         2.2259   -6.0930    3.5583 C.2       1 <0>         0.5699
     27 O2          2.9674   -5.1488    3.3860 O.2       1 <0>        -0.5381
     28 C22         2.2541   -6.8448    4.8641 C.3       1 <0>        -0.1993
     29 C23         1.7410   -6.1181    6.1088 C.3       1 <0>        -0.1404
     30 C24         3.2401   -6.3681    5.9325 C.3       1 <0>        -0.1451
     31 O3          1.1215   -9.3509   -3.0470 O.3       1 <0>        -0.2987
     32 C25         0.8693  -10.7266   -2.7536 C.3       1 <0>         0.0215
     33 O4          1.6059   -6.6660   -3.4631 O.3       1 <0>        -0.2946
     34 C26         1.8484   -5.2643   -3.5998 C.3       1 <0>         0.0215
     35 H3          1.0042    1.8801    0.0026 H         1 <0>         0.1147
     36 H4         -0.5455    1.8639   -0.8728 H         1 <0>         0.1003
     37 H5         -0.5286    1.8543    0.9071 H         1 <0>         0.0981
     38 H6         -0.0074   -0.0893   -2.1382 H         1 <0>         0.1666
     39 H7          0.0248   -2.5227   -2.2547 H         1 <0>         0.1733
     40 H8          0.0616   -4.7041   -1.0092 H         1 <0>         0.2000
     41 H9         -1.0039    0.2940    2.7986 H         1 <0>         0.0939
     42 H10         0.5523   -0.4451    3.2461 H         1 <0>         0.0724
     43 H11         0.5225    1.0761    2.3224 H         1 <0>         0.1012
     44 H12         1.6493   -5.2275   -1.2817 H         1 <0>         0.1325
     45 H13         0.8013  -10.0153   -0.5421 H         1 <0>         0.1463
     46 H14         0.0761   -9.4466    1.7143 H         1 <0>         0.0992
     47 H15         1.7916   -9.1537    2.0710 H         1 <0>         0.0923
     48 H16        -0.5623   -7.2936    2.5798 H         1 <0>         0.0789
     49 H17         0.5574   -8.0018    3.7741 H         1 <0>         0.1074
     50 H18         2.0674   -7.9164    4.7937 H         1 <0>         0.1280
     51 H19         1.3830   -5.0963    5.9833 H         1 <0>         0.0996
     52 H20         1.2164   -6.7116    6.8577 H         1 <0>         0.1082
     53 H21         3.7018   -7.1261    6.5653 H         1 <0>         0.1088
     54 H22         3.8683   -5.5108    5.6909 H         1 <0>         0.1072
     55 H23         1.6569  -11.1100   -2.1050 H         1 <0>         0.0604
     56 H24        -0.0932  -10.8204   -2.2508 H         1 <0>         0.0602
     57 H25         0.8520  -11.2987   -3.6813 H         1 <0>         0.1093
     58 H26         0.9995   -4.7082   -3.2020 H         1 <0>         0.0463
     59 H27         2.7493   -4.9959   -3.0480 H         1 <0>         0.0593
     60 H28         1.9814   -5.0197   -4.6536 H         1 <0>         0.1116
     61 H29         0.0489   -2.1745    3.2120 H         1 <0>         0.4363
@<TRIPOS>BOND
     1    1    2 1
     2    1   35 1
     3    1   36 1
     4    1   37 1
     5    2   13 ar
     6    2    3 ar
     7    3    4 ar
     8    3   38 1
     9    4    5 ar
    10    4   39 1
    11    5   12 ar
    12    5    6 2
    13    6    7 1
    14    6   40 1
    15    7    8 1
    16    7    9 1
    17    7   15 1
    18    9   10 2
    19    9   11 am
    20   11   12 2
    21   11   61 1
    22   12   13 ar
    23   13   14 1
    24   14   41 1
    25   14   42 1
    26   14   43 1
    27   15   16 1
    28   15   25 1
    29   15   17 1
    30   17   22 ar
    31   17   18 ar
    32   18   19 ar
    33   18   44 1
    34   19   20 ar
    35   19   33 1
    36   20   21 ar
    37   20   31 1
    38   21   22 ar
    39   21   45 1
    40   22   23 1
    41   23   24 1
    42   23   46 1
    43   23   47 1
    44   24   25 1
    45   24   48 1
    46   24   49 1
    47   25   26 am
    48   26   27 2
    49   26   28 1
    50   28   30 1
    51   28   29 1
    52   28   50 1
    53   29   30 1
    54   29   51 1
    55   29   52 1
    56   30   53 1
    57   30   54 1
    58   31   32 1
    59   32   55 1
    60   32   56 1
    61   32   57 1
    62   33   34 1
    63   34   58 1
    64   34   59 1
    65   34   60 1
@<TRIPOS>MOLECULE
ZINC64044011
   55    59     0     0     0
SMALL
USER_CHARGES

@<TRIPOS>ATOM
      1 C1          0.2599    1.4932    0.1817 C.3       1 <0>        -0.1497
      2 C2          0.0014   -0.0040    0.0016 C.3       1 <0>        -0.0935
      3 C3          0.7070   -0.4900   -1.2381 C.ar      1 <0>        -0.0533
      4 C4          0.0586   -0.4612   -2.4586 C.ar      1 <0>        -0.1085
      5 C5          0.7058   -0.9070   -3.5958 C.ar      1 <0>        -0.0878
      6 C6          2.0016   -1.3812   -3.5126 C.ar      1 <0>        -0.1389
      7 C7          2.6503   -1.4092   -2.2923 C.ar      1 <0>        -0.1229
      8 C8          2.0046   -0.9594   -1.1558 C.ar      1 <0>        -0.1106
      9 C9          2.7068   -1.8682   -4.7522 C.3       1 <0>         0.1991
     10 H1          2.0585   -1.7414   -5.6192 H         1 <0>         0.1396
     11 C10         3.0755   -3.3471   -4.5921 C.3       1 <0>         0.0809
     12 H2          3.4085   -3.7639   -5.5426 H         1 <0>         0.1766
     13 C11         4.1929   -3.4071   -3.5584 C.2       1 <0>         0.0636
     14 C12         3.7743   -4.2264   -2.6009 C.ar      1 <0>        -0.1594
     15 C13         4.4334   -4.7287   -1.3847 C.ar      1 <0>        -0.0020
     16 C14         3.6957   -5.5617   -0.6037 C.ar      1 <0>        -0.1562
     17 C15         2.3843   -5.9403   -0.9075 C.ar      1 <0>         0.0530
     18 C16         1.7023   -5.5298   -2.0064 C.ar      1 <0>        -0.2031
     19 C17         2.3752   -4.6539   -2.9071 C.ar      1 <0>         0.3393
     20 N1          1.9640   -4.1295   -4.0481 N.pl3     1 <0>        -0.5760
     21 C18         5.4507   -2.5816   -3.6757 C.3       1 <0>        -0.1055
     22 C19         5.0053   -1.1290   -3.9244 C.3       1 <0>         0.0868
     23 N2          3.9525   -1.1099   -4.9468 N.am      1 <0>        -0.6065
     24 C20         4.1283   -0.3933   -6.0746 C.2       1 <0>         0.5158
     25 O1          3.2620   -0.3756   -6.9231 O.2       1 <0>        -0.5026
     26 C21         5.4015    0.3861   -6.2813 C.3       1 <0>         0.0675
     27 N3          5.3484    1.0743   -7.5736 N.am      1 <0>        -0.5692
     28 C22         5.8051    0.4400   -8.6402 C.2       1 <0>         0.5328
     29 O2          6.2614   -0.6817   -8.5812 O.2       1 <0>        -0.4633
     30 C23         5.7180    1.2152   -9.9474 C.3       1 <0>        -0.1112
     31 S1          4.9571    2.7765   -9.3357 S.3       1 <0>        -0.1297
     32 C24         4.8324    2.3167   -7.6135 C.2       1 <0>         0.5643
     33 O3          4.3870    2.9735   -6.6925 O.2       1 <0>        -0.4128
     34 H3          1.3312    1.6676    0.2814 H         1 <0>         0.0569
     35 H4         -0.1170    2.0340   -0.6864 H         1 <0>         0.0579
     36 H5         -0.2504    1.8448    1.0784 H         1 <0>         0.0663
     37 H6          0.3783   -0.5447    0.8698 H         1 <0>         0.0769
     38 H7         -1.0699   -0.1783   -0.0981 H         1 <0>         0.0780
     39 H8         -0.9538   -0.0908   -2.5236 H         1 <0>         0.1327
     40 H9          0.1989   -0.8852   -4.5493 H         1 <0>         0.1290
     41 H10         3.6626   -1.7800   -2.2273 H         1 <0>         0.1252
     42 H11         2.5128   -0.9777   -0.2030 H         1 <0>         0.1299
     43 H12         5.4451   -4.4518   -1.1276 H         1 <0>         0.1700
     44 H13         4.1457   -5.9512    0.2975 H         1 <0>         0.1551
     45 H14         1.8801   -6.6042   -0.2209 H         1 <0>         0.1572
     46 H15         0.6892   -5.8548   -2.1916 H         1 <0>         0.1673
     47 H16         6.0243   -2.6426   -2.7509 H         1 <0>         0.1284
     48 H17         6.0523   -2.9357   -4.5129 H         1 <0>         0.1319
     49 H18         4.6200   -0.7032   -2.9980 H         1 <0>         0.1046
     50 H19         5.8565   -0.5415   -4.2686 H         1 <0>         0.1187
     51 H20         5.5119    1.1200   -5.4831 H         1 <0>         0.1362
     52 H21         6.2514   -0.2962   -6.2677 H         1 <0>         0.1392
     53 H22         6.7070    1.3946  -10.3689 H         1 <0>         0.1633
     54 H23         5.0692    0.7122  -10.6644 H         1 <0>         0.1612
     55 H24         1.0897   -4.2320   -4.4555 H         1 <0>         0.4575
@<TRIPOS>BOND
     1    1    2 1
     2    1   34 1
     3    1   35 1
     4    1   36 1
     5    2    3 1
     6    2   37 1
     7    2   38 1
     8    3    8 ar
     9    3    4 ar
    10    4    5 ar
    11    4   39 1
    12    5    6 ar
    13    5   40 1
    14    6    7 ar
    15    6    9 1
    16    7    8 ar
    17    7   41 1
    18    8   42 1
    19    9   10 1
    20    9   23 1
    21    9   11 1
    22   11   12 1
    23   11   20 1
    24   11   13 1
    25   13   14 2
    26   13   21 1
    27   14   19 ar
    28   14   15 ar
    29   15   16 ar
    30   15   43 1
    31   16   17 ar
    32   16   44 1
    33   17   18 ar
    34   17   45 1
    35   18   19 ar
    36   18   46 1
    37   19   20 2
    38   20   55 1
    39   21   22 1
    40   21   47 1
    41   21   48 1
    42   22   23 1
    43   22   49 1
    44   22   50 1
    45   23   24 am
    46   24   25 2
    47   24   26 1
    48   26   27 1
    49   26   51 1
    50   26   52 1
    51   27   32 am
    52   27   28 am
    53   28   29 2
    54   28   30 1
    55   30   31 1
    56   30   53 1
    57   30   54 1
    58   31   32 1
    59   32   33 2
@<TRIPOS>MOLECULE
ZINC13071215
   57    60     0     0     0
SMALL
USER_CHARGES
5-[(4-chlorophenoxy)methyl]-2-[(6,7-dimethoxy-3,4-dihydro-1H-isoquinolin-2-yl)methyl]-4-methyl-1,2,4-triazole-3-thione
@<TRIPOS>ATOM
      1 C1          1.7759   -1.7730   -0.0240 C.3       1 <0>         0.0691
      2 N1          1.2938   -0.3896   -0.0124 N.pl3     1 <0>        -0.4779
      3 C2          2.0807    0.7359   -0.0139 C.2       1 <0>         0.3094
      4 N2          1.3163    1.7801   -0.0009 N.2       1 <0>        -0.2538
      5 N3         -0.0162    1.3452    0.0094 N.pl3     1 <0>        -0.4271
      6 C3          0.0021   -0.0041    0.0020 C.2       1 <0>         0.4528
      7 S1         -1.3637   -1.0363    0.0104 S.2       1 <0>        -0.4971
      8 C4         -1.2078    2.1975    0.0200 C.3       1 <0>         0.2752
      9 C5         -2.9078    3.1457    1.4636 C.3       1 <0>         0.0047
     10 C6         -3.4275    3.0782    2.8997 C.3       1 <0>        -0.1019
     11 C7         -2.3637    3.5553    3.8553 C.ar      1 <0>        -0.0826
     12 C8         -2.7424    3.9024    5.1439 C.ar      1 <0>        -0.1660
     13 C9         -1.7989    4.3367    6.0575 C.ar      1 <0>         0.1335
     14 C10        -0.4624    4.4256    5.6783 C.ar      1 <0>         0.1188
     15 C11        -0.0906    4.0806    4.3915 C.ar      1 <0>        -0.1551
     16 C12        -1.0408    3.6460    3.4782 C.ar      1 <0>        -0.1331
     17 C13        -0.5843    3.2857    2.0885 C.3       1 <0>         0.0567
     18 O1          0.4734    4.8502    6.5690 O.3       1 <0>        -0.2956
     19 C14         1.8245    4.9163    6.1084 C.3       1 <0>         0.0222
     20 O2         -2.1750    4.6756    7.3196 O.3       1 <0>        -0.2957
     21 C15        -3.5637    4.5589    7.6361 C.3       1 <0>         0.0206
     22 C16         3.5875    0.7523   -0.0282 C.3       1 <0>         0.1312
     23 O3          4.0509    0.7647   -1.3799 O.3       1 <0>        -0.3045
     24 C17         5.3966    0.7804   -1.5707 C.ar      1 <0>         0.1223
     25 C18         6.2528    0.7895   -0.4793 C.ar      1 <0>        -0.1938
     26 C19         7.6202    0.8006   -0.6753 C.ar      1 <0>        -0.0674
     27 C20         8.1359    0.8132   -1.9593 C.ar      1 <0>        -0.0622
     28 C21         7.2834    0.8094   -3.0491 C.ar      1 <0>        -0.0664
     29 C22         5.9155    0.7930   -2.8572 C.ar      1 <0>        -0.1266
     30 Cl1         9.8545    0.8332   -2.2030 Cl        1 <0>        -0.0544
     31 H1          1.8859   -2.1107   -1.0545 H         1 <0>         0.1039
     32 H2          2.7405   -1.8258    0.4807 H         1 <0>         0.1047
     33 H3          1.0598   -2.4116    0.4932 H         1 <0>         0.1203
     34 H4         -0.9880    3.1355   -0.4898 H         1 <0>         0.1745
     35 H5         -2.0236    1.6878   -0.4926 H         1 <0>         0.1803
     36 H6         -2.7981    4.1876    1.1625 H         1 <0>         0.1416
     37 H7         -3.6067    2.6405    0.7969 H         1 <0>         0.1460
     38 H8         -3.6943    2.0490    3.1398 H         1 <0>         0.1072
     39 H9         -4.3093    3.7120    2.9940 H         1 <0>         0.1282
     40 H10        -3.7799    3.8329    5.4357 H         1 <0>         0.1487
     41 H11         0.9459    4.1494    4.0958 H         1 <0>         0.1438
     42 H12         0.3455    2.7202    2.1507 H         1 <0>         0.1255
     43 H13        -0.4120    4.1986    1.5184 H         1 <0>         0.1439
     44 H14         2.1495    3.9251    5.7922 H         1 <0>         0.0569
     45 H15         1.8879    5.6053    5.2661 H         1 <0>         0.0592
     46 H16         2.4666    5.2690    6.9155 H         1 <0>         0.1111
     47 H17        -4.1425    5.2038    6.9749 H         1 <0>         0.0612
     48 H18        -3.8808    3.5245    7.5038 H         1 <0>         0.0608
     49 H19        -3.7269    4.8594    8.6711 H         1 <0>         0.1114
     50 H20         3.9461    1.6434    0.4871 H         1 <0>         0.1170
     51 H21         3.9654   -0.1364    0.4773 H         1 <0>         0.1080
     52 H22         5.8506    0.7838    0.5230 H         1 <0>         0.1367
     53 H23         8.2872    0.8035    0.1741 H         1 <0>         0.1424
     54 H24         7.6878    0.8189   -4.0506 H         1 <0>         0.1474
     55 H25         5.2504    0.7898   -3.7081 H         1 <0>         0.1436
     56 N4         -1.6026    2.4560    1.4233 N.4       1 <0>        -0.4150
     57 H26        -1.6813    1.5600    1.9186 H         1 <0>         0.4350
@<TRIPOS>BOND
     1    1    2 1
     2    1   31 1
     3    1   32 1
     4    1   33 1
     5    2    6 1
     6    2    3 1
     7    3    4 2
     8    3   22 1
     9    4    5 1
    10    5    6 1
    11    5    8 1
    12    6    7 2
    13    8   34 1
    14    8   35 1
    15    8   56 1
    16    9   10 1
    17    9   36 1
    18    9   37 1
    19    9   56 1
    20   10   11 1
    21   10   38 1
    22   10   39 1
    23   11   16 ar
    24   11   12 ar
    25   12   13 ar
    26   12   40 1
    27   13   14 ar
    28   13   20 1
    29   14   15 ar
    30   14   18 1
    31   15   16 ar
    32   15   41 1
    33   16   17 1
    34   17   42 1
    35   17   43 1
    36   17   56 1
    37   18   19 1
    38   19   44 1
    39   19   45 1
    40   19   46 1
    41   20   21 1
    42   21   47 1
    43   21   48 1
    44   21   49 1
    45   22   23 1
    46   22   50 1
    47   22   51 1
    48   23   24 1
    49   24   29 ar
    50   24   25 ar
    51   25   26 ar
    52   25   52 1
    53   26   27 ar
    54   26   53 1
    55   27   28 ar
    56   27   30 1
    57   28   29 ar
    58   28   54 1
    59   29   55 1
    60   56   57 1
@<TRIPOS>MOLECULE
ZINC31773699
   63    66     0     0     0
SMALL
USER_CHARGES
(4aS,7aR)-1-[2-(2,5-dimethoxyphenyl)ethyl]-4-(4-ethylphenyl)-6,6-dioxo-4a,5,7,7a-tetrahydro-2H-thieno[3,4-b]pyrazin-3-one
@<TRIPOS>ATOM
      1 C1         -6.2354   -0.9105   -5.7819 C.3       1 <0>        -0.1510
      2 C2         -4.7601   -0.5052   -5.7829 C.3       1 <0>        -0.0958
      3 C3         -4.3986    0.0788   -4.4416 C.ar      1 <0>        -0.0538
      4 C4         -3.9331   -0.7450   -3.4332 C.ar      1 <0>        -0.1036
      5 C5         -3.6010   -0.2129   -2.2028 C.ar      1 <0>        -0.0951
      6 C6         -3.7354    1.1511   -1.9786 C.ar      1 <0>         0.0922
      7 C7         -4.2085    1.9748   -2.9916 C.ar      1 <0>        -0.1030
      8 C8         -4.5335    1.4373   -4.2216 C.ar      1 <0>        -0.1063
      9 N1         -3.4002    1.6933   -0.7330 N.am      1 <0>        -0.5623
     10 C9         -2.2486    2.5778   -0.6604 C.3       1 <0>         0.1232
     11 H1         -2.5547    3.4878   -1.1971 H         1 <0>         0.1354
     12 C10        -1.0390    1.9122   -1.3488 C.3       1 <0>        -0.5975
     13 S1         -0.0423    1.2986    0.0680 S.o2      1 <0>         2.3954
     14 O1         -0.0761   -0.1220    0.0744 O.2       1 <0>        -0.8956
     15 O2          1.2116    1.9672    0.0734 O.2       1 <0>        -0.8951
     16 C11        -1.0584    1.9256    1.4663 C.3       1 <0>        -0.6447
     17 C12        -1.9269    2.9992    0.7663 C.3       1 <0>         0.0351
     18 H2         -1.4148    3.9720    0.7287 H         1 <0>         0.1843
     19 N2         -3.1567    3.1969    1.5431 N.4       1 <0>        -0.3915
     20 C13        -3.8730    1.9201    1.6914 C.3       1 <0>        -0.0289
     21 C14        -4.1586    1.3661    0.3200 C.2       1 <0>         0.4986
     22 O3         -5.0940    0.6093    0.1671 O.2       1 <0>        -0.4551
     23 C15        -2.8616    3.7904    2.8540 C.3       1 <0>        -0.0080
     24 C16        -4.1703    4.1850    3.5415 C.3       1 <0>        -0.0913
     25 C17        -3.8676    4.7938    4.8863 C.ar      1 <0>        -0.0990
     26 C18        -3.8979    4.0086    6.0227 C.ar      1 <0>        -0.1068
     27 C19        -3.6146    4.5679    7.2597 C.ar      1 <0>         0.1031
     28 C20        -3.3116    5.9180    7.3574 C.ar      1 <0>        -0.1536
     29 C21        -3.2864    6.7041    6.2221 C.ar      1 <0>        -0.1594
     30 C22        -3.5642    6.1434    4.9840 C.ar      1 <0>         0.1004
     31 O4         -3.5394    6.9174    3.8662 O.3       1 <0>        -0.3231
     32 C23        -3.2193    8.2991    4.0407 C.3       1 <0>         0.0206
     33 O5         -3.6394    3.7940    8.3775 O.3       1 <0>        -0.3142
     34 C24        -3.3435    4.4373    9.6187 C.3       1 <0>         0.0205
     35 H3         -6.4992   -1.3368   -6.7610 H         1 <0>         0.0659
     36 H4         -6.8587   -0.0252   -5.5874 H         1 <0>         0.0571
     37 H5         -6.4090   -1.6609   -4.9965 H         1 <0>         0.0581
     38 H6         -4.1368   -1.3905   -5.9774 H         1 <0>         0.0799
     39 H7         -4.5865    0.2451   -6.5683 H         1 <0>         0.0792
     40 H8         -3.8288   -1.8056   -3.6081 H         1 <0>         0.1355
     41 H9         -3.2375   -0.8568   -1.4156 H         1 <0>         0.1293
     42 H10        -4.3180    3.0353   -2.8191 H         1 <0>         0.1267
     43 H11        -4.8974    2.0781   -5.0112 H         1 <0>         0.1344
     44 H12        -1.3901    1.0997   -2.0019 H         1 <0>         0.1725
     45 H13        -0.5022    2.6603   -1.9506 H         1 <0>         0.1769
     46 H14        -1.6483    1.0996    1.8901 H         1 <0>         0.1638
     47 H15        -0.3982    2.3404    2.2422 H         1 <0>         0.1816
     48 H16        -3.2490    1.2133    2.2580 H         1 <0>         0.1674
     49 H17        -4.8168    2.0896    2.2305 H         1 <0>         0.1796
     50 H18        -2.3270    3.0576    3.4763 H         1 <0>         0.1378
     51 H19        -2.2343    4.6839    2.7192 H         1 <0>         0.1458
     52 H20        -4.7049    4.9178    2.9192 H         1 <0>         0.1054
     53 H21        -4.7976    3.2915    3.6763 H         1 <0>         0.0978
     54 H22        -4.1385    2.9585    5.9471 H         1 <0>         0.1410
     55 H23        -3.0950    6.3544    8.3213 H         1 <0>         0.1384
     56 H24        -3.0501    7.7552    6.2982 H         1 <0>         0.1382
     57 H25        -3.2343    8.8051    3.0641 H         1 <0>         0.1070
     58 H26        -2.2173    8.3900    4.4854 H         1 <0>         0.0604
     59 H27        -3.9599    8.7657    4.7069 H         1 <0>         0.0615
     60 H28        -3.3982    3.7020   10.4350 H         1 <0>         0.1091
     61 H29        -4.0736    5.2401    9.7988 H         1 <0>         0.0601
     62 H30        -2.3309    4.8650    9.5777 H         1 <0>         0.0594
     63 H31        -3.8027    3.9008    0.9979 H         1 <0>         0.4561
@<TRIPOS>BOND
     1    1    2 1
     2    1   35 1
     3    1   36 1
     4    1   37 1
     5    2    3 1
     6    2   38 1
     7    2   39 1
     8    3    8 ar
     9    3    4 ar
    10    4    5 ar
    11    4   40 1
    12    5    6 ar
    13    5   41 1
    14    6    7 ar
    15    6    9 1
    16    7    8 ar
    17    7   42 1
    18    8   43 1
    19    9   21 am
    20    9   10 1
    21   10   11 1
    22   10   17 1
    23   10   12 1
    24   12   13 1
    25   12   44 1
    26   12   45 1
    27   13   14 2
    28   13   15 2
    29   13   16 1
    30   16   17 1
    31   16   46 1
    32   16   47 1
    33   17   18 1
    34   17   19 1
    35   19   20 1
    36   19   23 1
    37   19   63 1
    38   20   21 1
    39   20   48 1
    40   20   49 1
    41   21   22 2
    42   23   24 1
    43   23   50 1
    44   23   51 1
    45   24   25 1
    46   24   52 1
    47   24   53 1
    48   25   30 ar
    49   25   26 ar
    50   26   27 ar
    51   26   54 1
    52   27   28 ar
    53   27   33 1
    54   28   29 ar
    55   28   55 1
    56   29   30 ar
    57   29   56 1
    58   30   31 1
    59   31   32 1
    60   32   57 1
    61   32   58 1
    62   32   59 1
    63   33   34 1
    64   34   60 1
    65   34   61 1
    66   34   62 1
@<TRIPOS>MOLECULE
ZINC39353639
   61    64     0     0     0
SMALL
USER_CHARGES

@<TRIPOS>ATOM
      1 C1          1.6963   -2.4508   -1.8239 C.3       1 <0>        -0.1535
      2 C2          0.8194   -2.1359   -0.6103 C.3       1 <0>         0.0780
      3 H1          0.9935   -2.8852    0.1619 H         1 <0>         0.0895
      4 C3         -0.6346   -2.1757   -1.0234 C.3       1 <0>        -0.0522
      5 N1         -1.5716   -2.0322    0.0856 N.4       1 <0>        -0.3821
      6 C4         -1.5387   -0.6731    0.6360 C.3       1 <0>         0.0487
      7 C5         -0.4151   -0.5845    1.6507 C.ar      1 <0>        -0.1768
      8 C6         -0.7048   -0.4372    2.9920 C.ar      1 <0>        -0.0631
      9 C7          0.3281   -0.3414    3.9094 C.ar      1 <0>        -0.0408
     10 C8          1.6432   -0.3912    3.4816 C.ar      1 <0>        -0.0620
     11 C9          1.9318   -0.5441    2.1387 C.ar      1 <0>        -0.1068
     12 C10         0.8958   -0.6486    1.2213 C.ar      1 <0>         0.1129
     13 O1          1.1678   -0.8429   -0.0996 O.3       1 <0>        -0.3064
     14 Cl1        -0.0274   -0.1582    5.5988 Cl        1 <0>        -0.0337
     15 C11        -2.9299   -2.3259   -0.3906 C.3       1 <0>         0.0042
     16 C12        -3.0201   -3.7978   -0.7987 C.3       1 <0>        -0.1741
     17 C13        -4.4450   -4.1333   -1.1570 C.2       1 <0>         0.5229
     18 O2         -5.3037   -3.2793   -1.0923 O.2       1 <0>        -0.5295
     19 N2         -4.7649   -5.3823   -1.5492 N.am      1 <0>        -0.5996
     20 C14        -3.7368   -6.4291   -1.6267 C.3       1 <0>         0.0990
     21 C15        -4.2009   -7.6376   -0.8075 C.3       1 <0>        -0.1327
     22 C16        -5.5838   -8.0776   -1.2934 C.3       1 <0>        -0.1089
     23 C17        -6.5855   -6.9395   -1.0852 C.3       1 <0>        -0.1258
     24 H2         -6.6179   -6.6720   -0.0291 H         1 <0>         0.1142
     25 C18        -6.1496   -5.7246   -1.9017 C.3       1 <0>         0.1211
     26 C19        -7.9535   -7.3852   -1.5334 C.2       1 <0>         0.4573
     27 O3         -8.3026   -7.2100   -2.6821 O.2       1 <0>        -0.4494
     28 C20        -8.8623   -8.0303   -0.5817 C.2       1 <0>         0.0891
     29 N3         -8.6064   -8.2721    0.6894 N.2       1 <0>        -0.4265
     30 C21        -9.6595   -8.8674    1.2389 C.2       1 <0>        -0.0247
     31 C22       -10.6173   -9.0092    0.2862 C.2       1 <0>        -0.0133
     32 N4        -10.1253   -8.4805   -0.8572 N.pl3     1 <0>        -0.4154
     33 C23       -10.8134   -8.4064   -2.1484 C.3       1 <0>         0.0596
     34 H3          2.7453   -2.4344   -1.5282 H         1 <0>         0.0897
     35 H4          1.4427   -3.4384   -2.2089 H         1 <0>         0.0897
     36 H5          1.5257   -1.7038   -2.5991 H         1 <0>         0.0809
     37 H6         -0.8151   -1.3714   -1.7366 H         1 <0>         0.1423
     38 H7         -0.8283   -3.1262   -1.5207 H         1 <0>         0.1438
     39 H8         -1.3628    0.0422   -0.1674 H         1 <0>         0.1458
     40 H9         -2.4888   -0.4529    1.1227 H         1 <0>         0.1465
     41 H10        -1.7316   -0.3965    3.3243 H         1 <0>         0.1516
     42 H11         2.4464   -0.3099    4.1990 H         1 <0>         0.1543
     43 H12         2.9582   -0.5816    1.8049 H         1 <0>         0.1550
     44 H13        -3.6457   -2.1253    0.4065 H         1 <0>         0.1464
     45 H14        -3.1576   -1.6959   -1.2504 H         1 <0>         0.1431
     46 H15        -2.3771   -3.9759   -1.6606 H         1 <0>         0.1185
     47 H16        -2.6969   -4.4255    0.0317 H         1 <0>         0.1187
     48 H17        -3.5944   -6.7252   -2.6660 H         1 <0>         0.0829
     49 H18        -2.7988   -6.0508   -1.2204 H         1 <0>         0.0842
     50 H19        -3.4930   -8.4567   -0.9344 H         1 <0>         0.0895
     51 H20        -4.2557   -7.3635    0.2461 H         1 <0>         0.0752
     52 H21        -5.5336   -8.3279   -2.3531 H         1 <0>         0.0739
     53 H22        -5.9057   -8.9525   -0.7287 H         1 <0>         0.0833
     54 H23        -6.8030   -4.8816   -1.6770 H         1 <0>         0.1005
     55 H24        -6.2082   -5.9620   -2.9640 H         1 <0>         0.0888
     56 H25        -9.7402   -9.1846    2.2681 H         1 <0>         0.1830
     57 H26       -11.5912   -9.4568    0.4181 H         1 <0>         0.1882
     58 H27       -10.6007   -9.3063   -2.7256 H         1 <0>         0.0867
     59 H28       -11.8878   -8.3260   -1.9835 H         1 <0>         0.0934
     60 H29       -10.4635   -7.5319   -2.6969 H         1 <0>         0.1044
     61 H30        -1.3276   -2.6890    0.8117 H         1 <0>         0.4208
@<TRIPOS>BOND
     1    1    2 1
     2    1   34 1
     3    1   35 1
     4    1   36 1
     5    2    3 1
     6    2   13 1
     7    2    4 1
     8    4    5 1
     9    4   37 1
    10    4   38 1
    11    5    6 1
    12    5   15 1
    13    5   61 1
    14    6    7 1
    15    6   39 1
    16    6   40 1
    17    7   12 ar
    18    7    8 ar
    19    8    9 ar
    20    8   41 1
    21    9   10 ar
    22    9   14 1
    23   10   11 ar
    24   10   42 1
    25   11   12 ar
    26   11   43 1
    27   12   13 1
    28   15   16 1
    29   15   44 1
    30   15   45 1
    31   16   17 1
    32   16   46 1
    33   16   47 1
    34   17   18 2
    35   17   19 am
    36   19   25 1
    37   19   20 1
    38   20   21 1
    39   20   48 1
    40   20   49 1
    41   21   22 1
    42   21   50 1
    43   21   51 1
    44   22   23 1
    45   22   52 1
    46   22   53 1
    47   23   24 1
    48   23   25 1
    49   23   26 1
    50   25   54 1
    51   25   55 1
    52   26   27 2
    53   26   28 1
    54   28   32 1
    55   28   29 2
    56   29   30 1
    57   30   31 2
    58   30   56 1
    59   31   32 1
    60   31   57 1
    61   32   33 1
    62   33   58 1
    63   33   59 1
    64   33   60 1
@<TRIPOS>MOLECULE
ZINC48311508
   66    70     0     0     0
SMALL
USER_CHARGES

@<TRIPOS>ATOM
      1 C1         -4.2483    0.7035   -1.7711 C.3       1 <0>        -0.0922
      2 C2         -3.6158   -0.5191   -1.1578 C.2       1 <0>         0.1052
      3 C3         -2.2777   -0.9189   -1.3127 C.2       1 <0>        -0.1855
      4 C4         -2.0988   -2.0678   -0.6058 C.2       1 <0>         0.0062
      5 O1         -3.2757   -2.3803   -0.0284 O.3       1 <0>        -0.0753
      6 N1         -4.2143   -1.3832   -0.3887 N.2       1 <0>        -0.2946
      7 C5         -0.8432   -2.8337   -0.4926 C.2       1 <0>         0.5996
      8 O2          0.1837   -2.3917   -0.9707 O.2       1 <0>        -0.4989
      9 N2         -0.8342   -4.0233    0.1407 N.am      1 <0>        -0.5988
     10 C6         -2.0909   -4.6473    0.5781 C.3       1 <0>         0.0802
     11 C7         -2.1725   -6.0570   -0.0205 C.3       1 <0>         0.1318
     12 N3         -0.9059   -6.7537    0.2445 N.pl3     1 <0>        -0.6566
     13 C8          0.3507   -6.1298   -0.1930 C.3       1 <0>         0.1281
     14 C9          0.4319   -4.7227    0.4007 C.3       1 <0>         0.0997
     15 C10        -0.8967   -7.9747    0.8945 C.ar      1 <0>         0.4904
     16 C11        -0.7764   -9.1834    0.1544 C.ar      1 <0>        -0.1475
     17 C12        -0.6511   -9.3869   -1.2782 C.2       1 <0>        -0.1066
     18 C13        -0.5494  -10.6361   -1.7557 C.2       1 <0>        -0.1028
     19 S1         -0.6158  -11.6490   -0.2899 S.3       1 <0>         0.1467
     20 C14        -0.7783  -10.3670    0.9243 C.ar      1 <0>         0.1031
     21 N4         -0.8851  -10.3325    2.2381 N.ar      1 <0>        -0.4559
     22 C15        -0.9938   -9.1793    2.8686 C.ar      1 <0>         0.2745
     23 N5         -0.9941   -8.0325    2.2126 N.ar      1 <0>        -0.5253
     24 C16        -1.1145   -9.1692    4.3707 C.3       1 <0>         0.0814
     25 N6          0.2251   -9.0963    4.9691 N.4       1 <0>        -0.3809
     26 C17         0.8495   -7.8166    4.6127 C.3       1 <0>        -0.0064
     27 C18         2.2756   -7.7692    5.1654 C.3       1 <0>        -0.1411
     28 C19         2.2314   -7.9104    6.6897 C.3       1 <0>        -0.1037
     29 C20         1.5119   -9.2130    7.0511 C.3       1 <0>        -0.1425
     30 C21         0.1141   -9.2070    6.4285 C.3       1 <0>        -0.0053
     31 C22         3.6578   -7.9435    7.2420 C.3       1 <0>        -0.1536
     32 C23        -0.4123  -11.0783   -3.1898 C.3       1 <0>        -0.0834
     33 C24        -0.6359   -8.2083   -2.2172 C.3       1 <0>        -0.1076
     34 H1         -4.1361    1.5495   -1.0930 H         1 <0>         0.0961
     35 H2         -3.7585    0.9296   -2.7182 H         1 <0>         0.0941
     36 H3         -5.3077    0.5157   -1.9456 H         1 <0>         0.0880
     37 H4         -1.5242   -0.4053   -1.8913 H         1 <0>         0.1744
     38 H5         -2.1086   -4.7103    1.6662 H         1 <0>         0.0828
     39 H6         -2.9353   -4.0525    0.2299 H         1 <0>         0.1187
     40 H7         -2.9944   -6.6037    0.4417 H         1 <0>         0.0882
     41 H8         -2.3343   -5.9888   -1.0962 H         1 <0>         0.0761
     42 H9          1.1951   -6.7246    0.1553 H         1 <0>         0.0843
     43 H10         0.3685   -6.0668   -1.2810 H         1 <0>         0.0794
     44 H11         1.2532   -4.1778   -0.0648 H         1 <0>         0.1095
     45 H12         0.5979   -4.7912    1.4758 H         1 <0>         0.0765
     46 H13        -1.6993   -8.3038    4.6824 H         1 <0>         0.1554
     47 H14        -1.6110  -10.0815    4.7014 H         1 <0>         0.1560
     48 H15         0.8774   -7.7161    3.5277 H         1 <0>         0.1252
     49 H16         0.2682   -6.9983    5.0377 H         1 <0>         0.1330
     50 H17         2.8579   -8.5869    4.7409 H         1 <0>         0.0851
     51 H18         2.7369   -6.8176    4.9013 H         1 <0>         0.1114
     52 H19         1.6928   -7.0654    7.1185 H         1 <0>         0.0898
     53 H20         2.0783  -10.0608    6.6657 H         1 <0>         0.0885
     54 H21         1.4273   -9.2935    8.1349 H         1 <0>         0.1151
     55 H22        -0.4515   -8.3591    6.8148 H         1 <0>         0.1324
     56 H23        -0.4010  -10.1329    6.6841 H         1 <0>         0.1344
     57 H24         4.1712   -7.0189    6.9781 H         1 <0>         0.0670
     58 H25         3.6251   -8.0441    8.3269 H         1 <0>         0.0680
     59 H26         4.1934   -8.7912    6.8146 H         1 <0>         0.0614
     60 H27         0.6439  -11.1330   -3.4538 H         1 <0>         0.0936
     61 H28        -0.8687  -12.0605   -3.3124 H         1 <0>         0.0857
     62 H29        -0.9128  -10.3613   -3.8406 H         1 <0>         0.0941
     63 H30         0.3683   -7.7859   -2.2539 H         1 <0>         0.0757
     64 H31        -0.9295   -8.5347   -3.2148 H         1 <0>         0.0745
     65 H32        -1.3355   -7.4517   -1.8619 H         1 <0>         0.0793
     66 H33         0.7911   -9.8539    4.6174 H         1 <0>         0.4241
@<TRIPOS>BOND
     1    1    2 1
     2    1   34 1
     3    1   35 1
     4    1   36 1
     5    2    6 2
     6    2    3 1
     7    3    4 2
     8    3   37 1
     9    4    5 1
    10    4    7 1
    11    5    6 1
    12    7    8 2
    13    7    9 am
    14    9   14 1
    15    9   10 1
    16   10   11 1
    17   10   38 1
    18   10   39 1
    19   11   12 1
    20   11   40 1
    21   11   41 1
    22   12   13 1
    23   12   15 1
    24   13   14 1
    25   13   42 1
    26   13   43 1
    27   14   44 1
    28   14   45 1
    29   15   23 ar
    30   15   16 ar
    31   16   20 ar
    32   16   17 1
    33   17   18 2
    34   17   33 1
    35   18   19 1
    36   18   32 1
    37   19   20 1
    38   20   21 ar
    39   21   22 ar
    40   22   23 ar
    41   22   24 1
    42   24   25 1
    43   24   46 1
    44   24   47 1
    45   25   30 1
    46   25   26 1
    47   25   66 1
    48   26   27 1
    49   26   48 1
    50   26   49 1
    51   27   28 1
    52   27   50 1
    53   27   51 1
    54   28   29 1
    55   28   31 1
    56   28   52 1
    57   29   30 1
    58   29   53 1
    59   29   54 1
    60   30   55 1
    61   30   56 1
    62   31   57 1
    63   31   58 1
    64   31   59 1
    65   32   60 1
    66   32   61 1
    67   32   62 1
    68   33   63 1
    69   33   64 1
    70   33   65 1
@<TRIPOS>MOLECULE
ZINC39953459
   48    52     0     0     0
SMALL
USER_CHARGES

@<TRIPOS>ATOM
      1 C1          0.6397    0.1945    1.2640 C.3       1 <0>         0.0218
      2 O1          0.0027   -0.0053    0.0005 O.3       1 <0>        -0.3084
      3 C2         -1.2004   -0.6385    0.0091 C.ar      1 <0>         0.1589
      4 C3         -1.7572   -1.0531    1.2102 C.ar      1 <0>        -0.1981
      5 C4         -2.9791   -1.6963    1.2194 C.ar      1 <0>        -0.0456
      6 C5         -3.6502   -1.9281    0.0266 C.ar      1 <0>         0.0389
      7 C6         -3.0926   -1.5130   -1.1750 C.ar      1 <0>        -0.0481
      8 C7         -1.8733   -0.8649   -1.1827 C.ar      1 <0>        -0.1405
      9 N1         -4.8917   -2.5821    0.0354 N.am      1 <0>        -0.5230
     10 C8         -4.9274   -3.9006   -0.0616 C.2       1 <0>         0.5537
     11 O2         -3.9126   -4.5636   -0.1580 O.2       1 <0>        -0.4488
     12 C9         -6.2725   -4.5275   -0.0460 C.2       1 <0>        -0.1448
     13 C10        -6.6129   -5.8189   -0.1264 C.2       1 <0>        -0.0202
     14 C11        -5.5438   -6.8733   -0.2544 C.3       1 <0>        -0.1243
     15 H1         -4.5787   -6.3668   -0.2615 H         1 <0>         0.2037
     16 C12        -5.7212   -7.5545   -1.5969 C.2       1 <0>         0.1380
     17 C13        -5.9185   -8.9003   -1.5940 C.ar      1 <0>        -0.1665
     18 C14        -6.1000   -9.6335   -2.8472 C.ar      1 <0>         0.0001
     19 C15        -6.2948  -10.9794   -2.8114 C.ar      1 <0>         0.0189
     20 C16        -6.3222  -11.6787   -1.5879 C.ar      1 <0>         0.2865
     21 C17        -6.1591  -11.0325   -0.3789 C.ar      1 <0>        -0.2471
     22 C18        -5.9545   -9.6487   -0.3238 C.ar      1 <0>         0.3642
     23 N2         -5.7987   -9.0444    0.8567 N.am      1 <0>        -0.5949
     24 C19        -5.6015   -7.7444    0.9800 C.2       1 <0>         0.5289
     25 O3         -5.4665   -7.2498    2.0835 O.2       1 <0>        -0.4202
     26 O4         -6.5081  -13.0261   -1.5740 O.3       1 <0>        -0.2656
     27 C20        -7.0506  -13.6165   -2.7584 C.3       1 <0>         0.0064
     28 C21        -6.2876  -13.0594   -3.9675 C.3       1 <0>         0.0140
     29 O5         -6.4656  -11.6397   -3.9920 O.3       1 <0>        -0.2876
     30 S1         -7.3127   -3.0821    0.1105 S.3       1 <0>        -0.0073
     31 C22        -6.0193   -1.8518    0.1480 C.2       1 <0>         0.5504
     32 O6         -6.1292   -0.6448    0.2487 O.2       1 <0>        -0.3733
     33 H2          1.5889    0.7093    1.1150 H         1 <0>         0.1085
     34 H3         -0.0041    0.7975    1.9042 H         1 <0>         0.0615
     35 H4          0.8203   -0.7710    1.7365 H         1 <0>         0.0603
     36 H5         -1.2348   -0.8731    2.1381 H         1 <0>         0.1430
     37 H6         -3.4123   -2.0194    2.1545 H         1 <0>         0.1314
     38 H7         -3.6142   -1.6934   -2.1033 H         1 <0>         0.1359
     39 H8         -1.4415   -0.5380   -2.1171 H         1 <0>         0.1467
     40 H9         -7.6538   -6.1056   -0.0995 H         1 <0>         0.1729
     41 H10        -5.6924   -6.9934   -2.5193 H         1 <0>         0.2021
     42 H11        -6.0791   -9.1109   -3.7921 H         1 <0>         0.1878
     43 H12        -6.1897  -11.6028    0.5377 H         1 <0>         0.1826
     44 H13        -6.9324  -14.6993   -2.7165 H         1 <0>         0.1532
     45 H14        -8.1078  -13.3649   -2.8433 H         1 <0>         0.1078
     46 H15        -5.2276  -13.2956   -3.8742 H         1 <0>         0.0961
     47 H16        -6.6829  -13.4956   -4.8848 H         1 <0>         0.1491
     48 H17        -5.8322   -9.5855    1.6611 H         1 <0>         0.4412
@<TRIPOS>BOND
     1    1    2 1
     2    1   33 1
     3    1   34 1
     4    1   35 1
     5    2    3 1
     6    3    8 ar
     7    3    4 ar
     8    4    5 ar
     9    4   36 1
    10    5    6 ar
    11    5   37 1
    12    6    7 ar
    13    6    9 1
    14    7    8 ar
    15    7   38 1
    16    8   39 1
    17    9   31 am
    18    9   10 am
    19   10   11 2
    20   10   12 1
    21   12   13 2
    22   12   30 1
    23   13   14 1
    24   13   40 1
    25   14   15 1
    26   14   24 1
    27   14   16 1
    28   16   17 2
    29   16   41 1
    30   17   22 ar
    31   17   18 ar
    32   18   19 ar
    33   18   42 1
    34   19   29 1
    35   19   20 ar
    36   20   21 ar
    37   20   26 1
    38   21   22 ar
    39   21   43 1
    40   22   23 2
    41   23   24 am
    42   23   48 1
    43   24   25 2
    44   26   27 1
    45   27   28 1
    46   27   44 1
    47   27   45 1
    48   28   29 1
    49   28   46 1
    50   28   47 1
    51   30   31 1
    52   31   32 2
@<TRIPOS>MOLECULE
ZINC05414519
   40    44     0     0     0
SMALL
USER_CHARGES
methyl-tetrahydrofuran-2-yl-BLAH
@<TRIPOS>ATOM
      1 C1          6.7979   -3.7602   -0.1549 C.3       1 <0>        -0.1476
      2 C2          5.6833   -2.7505   -0.4360 C.3       1 <0>        -0.0872
      3 H1          5.6819   -2.4888   -1.4941 H         1 <0>         0.0790
      4 C3          5.9077   -1.4903    0.4047 C.3       1 <0>        -0.1175
      5 C4          4.9519   -0.3856   -0.0466 C.3       1 <0>        -0.0602
      6 C5          3.5262   -0.9329   -0.0358 C.2       1 <0>        -0.0855
      7 C6          3.3047   -2.2673   -0.0396 C.2       1 <0>        -0.1351
      8 S1          1.5386   -2.4272   -0.0240 S.3       1 <0>         0.1775
      9 C7          1.1352   -0.6976   -0.0123 C.2       1 <0>         0.0264
     10 C8          2.3950   -0.0779   -0.0213 C.2       1 <0>        -0.0694
     11 C9          2.3583    1.3995   -0.0138 C.2       1 <0>         0.2380
     12 N1          3.2792    2.3355   -0.0190 N.2       1 <0>        -0.2704
     13 N2          2.7139    3.4929   -0.0053 N.2       1 <0>        -0.2244
     14 C10         1.4134    3.3619    0.0073 C.2       1 <0>         0.1694
     15 N3          1.1374    2.0260    0.0021 N.pl3     1 <0>        -0.4378
     16 C11        -0.0156    1.2990    0.0092 C.2       1 <0>         0.3468
     17 N4          0.0021   -0.0041    0.0020 N.2       1 <0>        -0.4297
     18 C12         0.4043    4.4811    0.0238 C.3       1 <0>         0.1708
     19 H2         -0.5783    4.0981   -0.2517 H         1 <0>         0.0919
     20 C13         0.3456    5.1131    1.4280 C.3       1 <0>        -0.1462
     21 C14         0.6995    6.6012    1.1894 C.3       1 <0>        -0.1521
     22 C15         0.3880    6.7712   -0.3194 C.3       1 <0>         0.0456
     23 O1          0.8044    5.5134   -0.8930 O.3       1 <0>        -0.3522
     24 C16         4.3268   -3.3609   -0.0544 C.3       1 <0>        -0.0379
     25 H3          6.6282   -4.6619   -0.7433 H         1 <0>         0.0585
     26 H4          7.7596   -3.3249   -0.4265 H         1 <0>         0.0610
     27 H5          6.8001   -4.0133    0.9053 H         1 <0>         0.0581
     28 H6          5.7265   -1.7188    1.4550 H         1 <0>         0.0671
     29 H7          6.9363   -1.1514    0.2816 H         1 <0>         0.0751
     30 H8          5.0234    0.4609    0.6363 H         1 <0>         0.0870
     31 H9          5.2129   -0.0665   -1.0556 H         1 <0>         0.0819
     32 H10        -0.9647    1.8143    0.0164 H         1 <0>         0.2222
     33 H11        -0.6570    5.0217    1.8459 H         1 <0>         0.0893
     34 H12         1.0769    4.6459    2.0875 H         1 <0>         0.0832
     35 H13         0.0677    7.2529    1.7929 H         1 <0>         0.0874
     36 H14         1.7540    6.7877    1.3929 H         1 <0>         0.0846
     37 H15        -0.6790    6.9298   -0.4755 H         1 <0>         0.0681
     38 H16         0.9631    7.5965   -0.7394 H         1 <0>         0.1022
     39 H17         4.3935   -3.8145    0.9345 H         1 <0>         0.0927
     40 H18         4.0448   -4.1172   -0.7869 H         1 <0>         0.0894
@<TRIPOS>BOND
     1    1    2 1
     2    1   25 1
     3    1   26 1
     4    1   27 1
     5    2    3 1
     6    2   24 1
     7    2    4 1
     8    4    5 1
     9    4   28 1
    10    4   29 1
    11    5    6 1
    12    5   30 1
    13    5   31 1
    14    6   10 1
    15    6    7 2
    16    7    8 1
    17    7   24 1
    18    8    9 1
    19    9   17 1
    20    9   10 2
    21   10   11 1
    22   11   15 1
    23   11   12 2
    24   12   13 1
    25   13   14 2
    26   14   15 1
    27   14   18 1
    28   15   16 1
    29   16   17 2
    30   16   32 1
    31   18   19 1
    32   18   23 1
    33   18   20 1
    34   20   21 1
    35   20   33 1
    36   20   34 1
    37   21   22 1
    38   21   35 1
    39   21   36 1
    40   22   23 1
    41   22   37 1
    42   22   38 1
    43   24   39 1
    44   24   40 1
@<TRIPOS>MOLECULE
ZINC12115353
   41    43     0     0     0
SMALL
USER_CHARGES
(3,3-dimethyl-2-oxo-butyl)-dimethyl-BLAHone
@<TRIPOS>ATOM
      1 C1         -3.9342    4.7447    7.6925 C.3       1 <0>        -0.0737
      2 C2         -3.6664    3.7713    6.5737 C.2       1 <0>        -0.1052
      3 C3         -2.7666    3.8640    5.5735 C.2       1 <0>        -0.1565
      4 C4         -2.6680    2.8412    4.6179 C.2       1 <0>         0.0712
      5 C5         -3.5475    1.7644    4.7861 C.2       1 <0>        -0.1893
      6 S1         -4.4609    2.2080    6.2416 S.3       1 <0>         0.1156
      7 C6         -3.3386    0.8368    3.7760 C.2       1 <0>        -0.0267
      8 C7         -2.3338    1.3249    2.9752 C.2       1 <0>        -0.0192
      9 N1         -1.9208    2.5456    3.4825 N.pl3     1 <0>        -0.4008
     10 C8         -0.9115    3.2409    2.8468 C.2       1 <0>         0.3257
     11 N2         -0.3354    2.7791    1.7898 N.2       1 <0>        -0.2634
     12 N3         -0.6984    1.5583    1.2133 N.am      1 <0>        -0.4324
     13 C9         -1.6778    0.8103    1.7700 C.2       1 <0>         0.5677
     14 O1         -2.0044   -0.2585    1.2848 O.2       1 <0>        -0.5008
     15 C10        -0.0127    1.0858    0.0080 C.3       1 <0>         0.1004
     16 C11        -0.7416    1.5850   -1.2129 C.2       1 <0>         0.3500
     17 O2         -1.7316    2.2653   -1.0890 O.2       1 <0>        -0.4324
     18 C12        -0.2349    1.2354   -2.5884 C.3       1 <0>        -0.1098
     19 C13        -1.1491    1.8620   -3.6432 C.3       1 <0>        -0.1344
     20 C14         1.1867    1.7742   -2.7605 C.3       1 <0>        -0.1413
     21 C15        -0.2280   -0.2852   -2.7581 C.3       1 <0>        -0.1425
     22 C16        -0.4678    4.5682    3.4058 C.3       1 <0>        -0.0986
     23 H1         -4.7312    4.3579    8.3276 H         1 <0>         0.0795
     24 H2         -3.0287    4.8755    8.2849 H         1 <0>         0.0871
     25 H3         -4.2366    5.7048    7.2742 H         1 <0>         0.0870
     26 H4         -2.1200    4.7266    5.5085 H         1 <0>         0.1401
     27 H5         -3.8671   -0.0957    3.6436 H         1 <0>         0.1688
     28 H6          0.0008    0.0859    0.0026 H         1 <0>         0.1161
     29 H7          1.0099    1.4631    0.0003 H         1 <0>         0.1297
     30 H8         -1.1540    2.9453   -3.5223 H         1 <0>         0.0607
     31 H9         -0.7826    1.6091   -4.6381 H         1 <0>         0.0662
     32 H10        -2.1618    1.4781   -3.5206 H         1 <0>         0.0609
     33 H11         1.8379    1.3278   -2.0091 H         1 <0>         0.0640
     34 H12         1.5531    1.5213   -3.7554 H         1 <0>         0.0732
     35 H13         1.1817    2.8575   -2.6396 H         1 <0>         0.0620
     36 H14        -1.2407   -0.6691   -2.6355 H         1 <0>         0.0628
     37 H15         0.1385   -0.5381   -3.7530 H         1 <0>         0.0732
     38 H16         0.4233   -0.7316   -2.0066 H         1 <0>         0.0640
     39 H17         0.3365    4.4094    4.1241 H         1 <0>         0.1012
     40 H18        -0.1106    5.2028    2.5948 H         1 <0>         0.1065
     41 H19        -1.3085    5.0524    3.9027 H         1 <0>         0.0931
@<TRIPOS>BOND
     1    1    2 1
     2    1   23 1
     3    1   24 1
     4    1   25 1
     5    2    6 1
     6    2    3 2
     7    3    4 1
     8    3   26 1
     9    4    9 1
    10    4    5 2
    11    5    6 1
    12    5    7 1
    13    7    8 2
    14    7   27 1
    15    8   13 1
    16    8    9 1
    17    9   10 1
    18   10   11 2
    19   10   22 1
    20   11   12 1
    21   12   13 am
    22   12   15 1
    23   13   14 2
    24   15   16 1
    25   15   28 1
    26   15   29 1
    27   16   17 2
    28   16   18 1
    29   18   19 1
    30   18   20 1
    31   18   21 1
    32   19   30 1
    33   19   31 1
    34   19   32 1
    35   20   33 1
    36   20   34 1
    37   20   35 1
    38   21   36 1
    39   21   37 1
    40   21   38 1
    41   22   39 1
    42   22   40 1
    43   22   41 1
@<TRIPOS>MOLECULE
ZINC35318811
   41    44     0     0     0
SMALL
USER_CHARGES

@<TRIPOS>ATOM
      1 C1         -0.0184    1.5028    0.0103 C.3       1 <0>        -0.1209
      2 C2          0.0021   -0.0041    0.0020 C.ar      1 <0>        -0.0573
      3 C3          0.0057   -0.6865   -1.2011 C.ar      1 <0>        -0.1261
      4 C4          0.0244   -2.0666   -1.2145 C.ar      1 <0>        -0.0714
      5 C5          0.0396   -2.7722   -0.0132 C.ar      1 <0>        -0.0471
      6 C6          0.0359   -2.0797    1.1957 C.ar      1 <0>        -0.0588
      7 C7          0.0229   -0.6995    1.1975 C.ar      1 <0>        -0.1271
      8 C8          0.0593   -4.2563   -0.0214 C.2       1 <0>         0.3013
      9 N1          0.0697   -5.0467    1.0668 N.2       1 <0>        -0.5246
     10 C9          0.0855   -6.2989    0.7084 C.2       1 <0>         0.2906
     11 O1          0.0858   -6.3575   -0.6296 O.3       1 <0>        -0.0975
     12 N2          0.0636   -5.0146   -1.0897 N.2       1 <0>        -0.3364
     13 C10         0.1016   -7.4819    1.6418 C.3       1 <0>         0.2221
     14 H1         -0.1548   -7.1609    2.6514 H         1 <0>         0.1283
     15 C11         1.5000   -8.1345    1.6378 C.3       1 <0>        -0.1250
     16 C12         1.1764   -9.6501    1.7128 C.3       1 <0>        -0.1301
     17 C13        -0.1171   -9.7343    0.8646 C.3       1 <0>         0.0971
     18 N3         -0.8581   -8.4957    1.1806 N.am      1 <0>        -0.6151
     19 C14        -2.1897   -8.3222    1.0661 C.2       1 <0>         0.5610
     20 O2         -2.6895   -7.2559    1.3561 O.2       1 <0>        -0.5237
     21 C15        -3.0578   -9.4532    0.5779 C.3       1 <0>        -0.1925
     22 C16        -3.7107   -9.2998   -0.7973 C.3       1 <0>        -0.1491
     23 C17        -4.5617   -9.1936    0.4697 C.3       1 <0>        -0.1452
     24 H2          1.0042    1.8801    0.0026 H         1 <0>         0.0765
     25 H3         -0.5455    1.8639   -0.8728 H         1 <0>         0.0707
     26 H4         -0.5286    1.8543    0.9071 H         1 <0>         0.0712
     27 H5         -0.0065   -0.1386   -2.1317 H         1 <0>         0.1325
     28 H6          0.0268   -2.5985   -2.1544 H         1 <0>         0.1315
     29 H7          0.0473   -2.6218    2.1298 H         1 <0>         0.1389
     30 H8          0.0244   -0.1616    2.1340 H         1 <0>         0.1332
     31 H9          2.0329   -7.8991    0.7165 H         1 <0>         0.0867
     32 H10         2.0751   -7.8195    2.5085 H         1 <0>         0.1031
     33 H11         1.9752  -10.2427    1.2669 H         1 <0>         0.0973
     34 H12         0.9901   -9.9594    2.7412 H         1 <0>         0.0871
     35 H13         0.1271   -9.7713   -0.1970 H         1 <0>         0.0793
     36 H14        -0.7022  -10.6083    1.1508 H         1 <0>         0.0891
     37 H15        -2.7396  -10.4524    0.8756 H         1 <0>         0.1279
     38 H16        -3.5124   -8.3808   -1.3488 H         1 <0>         0.0987
     39 H17        -3.8221  -10.1980   -1.4046 H         1 <0>         0.1086
     40 H18        -5.2330  -10.0221    0.6960 H         1 <0>         0.1074
     41 H19        -4.9233   -8.2048    0.7518 H         1 <0>         0.1080
@<TRIPOS>BOND
     1    1    2 1
     2    1   24 1
     3    1   25 1
     4    1   26 1
     5    2    7 ar
     6    2    3 ar
     7    3    4 ar
     8    3   27 1
     9    4    5 ar
    10    4   28 1
    11    5    6 ar
    12    5    8 1
    13    6    7 ar
    14    6   29 1
    15    7   30 1
    16    8   12 2
    17    8    9 1
    18    9   10 2
    19   10   11 1
    20   10   13 1
    21   11   12 1
    22   13   14 1
    23   13   18 1
    24   13   15 1
    25   15   16 1
    26   15   31 1
    27   15   32 1
    28   16   17 1
    29   16   33 1
    30   16   34 1
    31   17   18 1
    32   17   35 1
    33   17   36 1
    34   18   19 am
    35   19   20 2
    36   19   21 1
    37   21   23 1
    38   21   22 1
    39   21   37 1
    40   22   23 1
    41   22   38 1
    42   22   39 1
    43   23   40 1
    44   23   41 1
@<TRIPOS>MOLECULE
ZINC40554304
   42    44     0     0     0
SMALL
USER_CHARGES

@<TRIPOS>ATOM
      1 C1         -0.0173    1.4248    0.0099 C.3       1 <0>         0.0216
      2 O1          0.0021   -0.0041    0.0020 O.3       1 <0>        -0.3097
      3 C2         -1.2003   -0.6375    0.0101 C.ar      1 <0>         0.1846
      4 C3         -2.3746    0.1011    0.0195 C.ar      1 <0>        -0.2288
      5 C4         -3.5956   -0.5451    0.0272 C.ar      1 <0>         0.0209
      6 C5         -3.6478   -1.9268    0.0260 C.ar      1 <0>        -0.7183
      7 C6         -2.4788   -2.6651    0.0172 C.ar      1 <0>         0.0179
      8 C7         -1.2554   -2.0237    0.0032 C.ar      1 <0>        -0.1705
      9 S1         -5.2067   -2.7480    0.0365 S.o2      1 <0>         2.6926
     10 O2         -4.9816   -4.0397    0.5843 O.2       1 <0>        -0.9511
     11 O3         -6.1424   -1.8361    0.5952 O.2       1 <0>        -0.9535
     12 N1         -5.6514   -2.9744   -1.5425 N.pl3     1 <0>        -0.9992
     13 C8         -6.4377   -1.9620   -2.2655 C.3       1 <0>         0.0857
     14 C9         -5.7381   -1.6558   -3.5941 C.3       1 <0>         0.0482
     15 O4         -5.4785   -2.8795   -4.2879 O.3       1 <0>        -0.3646
     16 C10        -4.6108   -3.7699   -3.5870 C.3       1 <0>         0.0855
     17 H1         -3.6784   -3.2525   -3.3613 H         1 <0>         0.0599
     18 C11        -5.2684   -4.1955   -2.2765 C.3       1 <0>         0.1244
     19 H2         -4.5718   -4.7877   -1.6832 H         1 <0>         0.1085
     20 C12        -6.5399   -4.9923   -2.5800 C.3       1 <0>        -0.1234
     21 C13        -6.1926   -6.2191   -3.4239 C.3       1 <0>        -0.1193
     22 C14        -5.5657   -5.7637   -4.7438 C.3       1 <0>        -0.1195
     23 C15        -4.3042   -4.9971   -4.4392 C.3       1 <0>        -0.1110
     24 H3          1.0053    1.8021    0.0021 H         1 <0>         0.1071
     25 H4         -0.5445    1.7859   -0.8732 H         1 <0>         0.0610
     26 H5         -0.5275    1.7763    0.9067 H         1 <0>         0.0615
     27 H6         -2.3343    1.1803    0.0211 H         1 <0>         0.1398
     28 H7         -4.5101    0.0294    0.0345 H         1 <0>         0.1422
     29 H8         -2.5223   -3.7443    0.0166 H         1 <0>         0.1464
     30 H9         -0.3427   -2.6008   -0.0082 H         1 <0>         0.1430
     31 H10        -7.4390   -2.3464   -2.4595 H         1 <0>         0.0860
     32 H11        -6.5015   -1.0529   -1.6676 H         1 <0>         0.0984
     33 H12        -6.3797   -1.0207   -4.2049 H         1 <0>         0.1079
     34 H13        -4.7969   -1.1417   -3.3993 H         1 <0>         0.0548
     35 H14        -6.9980   -5.3137   -1.6446 H         1 <0>         0.0682
     36 H15        -7.2404   -4.3621   -3.1278 H         1 <0>         0.0761
     37 H16        -5.4842   -6.8453   -2.8815 H         1 <0>         0.0652
     38 H17        -7.0994   -6.7882   -3.6290 H         1 <0>         0.0683
     39 H18        -5.3267   -6.6352   -5.3534 H         1 <0>         0.0660
     40 H19        -6.2681   -5.1251   -5.2795 H         1 <0>         0.0727
     41 H20        -3.8576   -4.6808   -5.3819 H         1 <0>         0.0739
     42 H21        -3.6047   -5.6418   -3.9071 H         1 <0>         0.0806
@<TRIPOS>BOND
     1    1    2 1
     2    1   24 1
     3    1   25 1
     4    1   26 1
     5    2    3 1
     6    3    8 ar
     7    3    4 ar
     8    4    5 ar
     9    4   27 1
    10    5    6 ar
    11    5   28 1
    12    6    7 ar
    13    6    9 1
    14    7    8 ar
    15    7   29 1
    16    8   30 1
    17    9   10 2
    18    9   11 2
    19    9   12 1
    20   12   18 1
    21   12   13 1
    22   13   14 1
    23   13   31 1
    24   13   32 1
    25   14   15 1
    26   14   33 1
    27   14   34 1
    28   15   16 1
    29   16   17 1
    30   16   23 1
    31   16   18 1
    32   18   19 1
    33   18   20 1
    34   20   21 1
    35   20   35 1
    36   20   36 1
    37   21   22 1
    38   21   37 1
    39   21   38 1
    40   22   23 1
    41   22   39 1
    42   22   40 1
    43   23   41 1
    44   23   42 1
@<TRIPOS>MOLECULE
ZINC55949641
   39    40     0     0     0
SMALL
USER_CHARGES

@<TRIPOS>ATOM
      1 C1         -0.8484   -2.1377   -5.3890 C.3       1 <0>        -0.1090
      2 C2         -1.3204   -0.7134   -5.2489 C.2       1 <0>         0.1700
      3 C3         -1.0961    0.1202   -4.1485 C.2       1 <0>        -0.8045
      4 C4         -1.6767    1.3165   -4.4072 C.2       1 <0>         0.2336
      5 N1         -2.2474    1.2406   -5.6281 N.pl3     1 <0>        -0.3479
      6 N2         -2.0059   -0.0416   -6.1380 N.2       1 <0>        -0.2702
      7 C5         -2.9854    2.3114   -6.3025 C.3       1 <0>         0.0827
      8 Cl1        -1.6856    2.6988   -3.3570 Cl        1 <0>         0.0379
      9 S1         -0.2152   -0.3098   -2.6844 S.o2      1 <0>         2.7172
     10 O1         -0.6295    0.6039   -1.6780 O.2       1 <0>        -0.9446
     11 O2         -0.3403   -1.7173   -2.5337 O.2       1 <0>        -0.9496
     12 N3          1.3873   -0.0049   -2.9697 N.pl3     1 <0>        -0.9901
     13 C6          1.9933    1.2583   -2.5262 C.3       1 <0>         0.1259
     14 C7          2.0477    1.2766   -1.0039 C.3       1 <0>        -0.1603
     15 C8          3.1376    0.3024   -0.5258 C.3       1 <0>        -0.1246
     16 C9          2.6126   -1.1264   -0.6085 C.3       1 <0>        -0.1188
     17 C10         3.3863   -1.9307   -1.6693 C.3       1 <0>        -0.1206
     18 C11         3.5558   -1.0875   -2.9332 C.3       1 <0>        -0.1418
     19 C12         2.2106   -0.9862   -3.6562 C.3       1 <0>         0.1130
     20 H1          0.1773   -2.1459   -5.7576 H         1 <0>         0.0900
     21 H2         -0.8895   -2.6312   -4.4180 H         1 <0>         0.1124
     22 H3         -1.4916   -2.6661   -6.0926 H         1 <0>         0.0882
     23 H4         -2.2954    2.9087   -6.8986 H         1 <0>         0.0904
     24 H5         -3.7441    1.8760   -6.9528 H         1 <0>         0.1049
     25 H6         -3.4658    2.9463   -5.5581 H         1 <0>         0.0968
     26 H7          3.0033    1.3390   -2.9281 H         1 <0>         0.0920
     27 H8          1.3911    2.0953   -2.8795 H         1 <0>         0.0683
     28 H9          2.2830    2.2837   -0.6599 H         1 <0>         0.0767
     29 H10         1.0825    0.9694   -0.6012 H         1 <0>         0.0928
     30 H11         4.0185    0.4032   -1.1598 H         1 <0>         0.0719
     31 H12         3.4038    0.5327    0.5058 H         1 <0>         0.0621
     32 H13         2.7286   -1.6082    0.3624 H         1 <0>         0.0607
     33 H14         1.5557   -1.1057   -0.8741 H         1 <0>         0.0490
     34 H15         4.3676   -2.1979   -1.2773 H         1 <0>         0.0632
     35 H16         2.8334   -2.8386   -1.9105 H         1 <0>         0.0677
     36 H17         3.8998   -0.0896   -2.6610 H         1 <0>         0.0851
     37 H18         4.2883   -1.5584   -3.5888 H         1 <0>         0.0738
     38 H19         1.7135   -1.9562   -3.6428 H         1 <0>         0.0925
     39 H20         2.3744   -0.6714   -4.6868 H         1 <0>         0.0632
@<TRIPOS>BOND
     1    1    2 1
     2    1   20 1
     3    1   21 1
     4    1   22 1
     5    2    6 2
     6    2    3 1
     7    3    4 2
     8    3    9 1
     9    4    5 1
    10    4    8 1
    11    5    6 1
    12    5    7 1
    13    7   23 1
    14    7   24 1
    15    7   25 1
    16    9   10 2
    17    9   11 2
    18    9   12 1
    19   12   19 1
    20   12   13 1
    21   13   14 1
    22   13   26 1
    23   13   27 1
    24   14   15 1
    25   14   28 1
    26   14   29 1
    27   15   16 1
    28   15   30 1
    29   15   31 1
    30   16   17 1
    31   16   32 1
    32   16   33 1
    33   17   18 1
    34   17   34 1
    35   17   35 1
    36   18   19 1
    37   18   36 1
    38   18   37 1
    39   19   38 1
    40   19   39 1
@<TRIPOS>MOLECULE
ZINC12332370
   58    61     0     0     0
SMALL
USER_CHARGES
7-(5-chloro-2-methoxy-phenyl)-9-methoxy-4-[(2-methoxyphenyl)methyl]-3,5-dihydro-2H-1,4-benzoxazepine
@<TRIPOS>ATOM
      1 C1         -6.7910   -5.0348    0.2243 C.3       1 <0>         0.0229
      2 O1         -7.0722   -3.8613   -0.5411 O.3       1 <0>        -0.3314
      3 C2         -6.4377   -3.7376   -1.7365 C.ar      1 <0>         0.1462
      4 C3         -5.5656   -4.7277   -2.1661 C.ar      1 <0>        -0.1997
      5 C4         -4.9176   -4.5969   -3.3789 C.ar      1 <0>        -0.0444
      6 C5         -5.1410   -3.4827   -4.1669 C.ar      1 <0>        -0.1470
      7 C6         -6.0135   -2.4974   -3.7436 C.ar      1 <0>        -0.0555
      8 C7         -6.6641   -2.6235   -2.5313 C.ar      1 <0>        -0.1940
      9 C8         -7.6142   -1.5486   -2.0699 C.3       1 <0>         0.0576
     10 C9         -7.9742    0.0267   -0.2763 C.3       1 <0>        -0.0390
     11 C10        -7.4597    0.5936    1.0294 C.3       1 <0>         0.0405
     12 O2         -6.4140    1.5442    0.7924 O.3       1 <0>        -0.2957
     13 C11        -5.1650    1.0169    0.6634 C.ar      1 <0>         0.0680
     14 C12        -4.8496    0.2509   -0.4422 C.ar      1 <0>        -0.1426
     15 C13        -3.6011   -0.3187   -0.5696 C.ar      1 <0>        -0.0995
     16 C14        -2.6441   -0.1139    0.4246 C.ar      1 <0>         0.0166
     17 C15        -2.9538    0.6691    1.5353 C.ar      1 <0>        -0.1441
     18 C16        -4.2126    1.2307    1.6577 C.ar      1 <0>         0.1345
     19 O3         -4.5189    1.9889    2.7443 O.3       1 <0>        -0.2976
     20 C17        -3.4923    2.1650    3.7226 C.3       1 <0>         0.0196
     21 C18        -1.2978   -0.7231    0.2970 C.ar      1 <0>        -0.0901
     22 C19        -1.1683   -2.0797    0.0083 C.ar      1 <0>        -0.0543
     23 C20         0.0876   -2.6420   -0.1100 C.ar      1 <0>        -0.0716
     24 C21         1.2191   -1.8615    0.0574 C.ar      1 <0>        -0.0539
     25 C22         1.1007   -0.5135    0.3384 C.ar      1 <0>        -0.1921
     26 C23        -0.1533    0.0618    0.4654 C.ar      1 <0>         0.1541
     27 O4         -0.2703    1.3859    0.7472 O.3       1 <0>        -0.3089
     28 C24         0.9423    2.1250    0.9059 C.3       1 <0>         0.0201
     29 Cl1         0.2483   -4.3329   -0.4692 Cl        1 <0>        -0.0580
     30 C25        -5.8876    0.0587   -1.5317 C.3       1 <0>         0.0523
     31 H1         -7.3611   -5.0081    1.1529 H         1 <0>         0.1106
     32 H2         -7.0716   -5.9184   -0.3490 H         1 <0>         0.0671
     33 H3         -5.7259   -5.0730    0.4527 H         1 <0>         0.0648
     34 H4         -5.3905   -5.5978   -1.5508 H         1 <0>         0.1404
     35 H5         -4.2356   -5.3653   -3.7118 H         1 <0>         0.1384
     36 H6         -4.6328   -3.3820   -5.1145 H         1 <0>         0.1386
     37 H7         -6.1863   -1.6282   -4.3608 H         1 <0>         0.1405
     38 H8         -8.5268   -2.0085   -1.6908 H         1 <0>         0.1374
     39 H9         -7.8577   -0.8950   -2.9075 H         1 <0>         0.1400
     40 H10        -8.8366   -0.6059   -0.0661 H         1 <0>         0.1401
     41 H11        -8.2947    0.8517   -0.9125 H         1 <0>         0.1409
     42 H12        -7.0738   -0.2182    1.6459 H         1 <0>         0.0798
     43 H13        -8.2787    1.0846    1.5550 H         1 <0>         0.1455
     44 H14        -3.3662   -0.9239   -1.4327 H         1 <0>         0.1407
     45 H15        -2.2111    0.8373    2.3011 H         1 <0>         0.1475
     46 H16        -2.6304    2.6479    3.2621 H         1 <0>         0.0637
     47 H17        -3.8672    2.7884    4.5345 H         1 <0>         0.1112
     48 H18        -3.1963    1.1932    4.1177 H         1 <0>         0.0603
     49 H19        -2.0489   -2.6910   -0.1232 H         1 <0>         0.1396
     50 H20         2.1984   -2.3072   -0.0360 H         1 <0>         0.1435
     51 H21         1.9868    0.0913    0.4632 H         1 <0>         0.1457
     52 H22         1.5215    1.7011    1.7262 H         1 <0>         0.0625
     53 H23         1.5234    2.0718   -0.0147 H         1 <0>         0.0628
     54 H24         0.7070    3.1660    1.1273 H         1 <0>         0.1075
     55 H25        -5.4330   -0.4451   -2.3847 H         1 <0>         0.1377
     56 H26        -6.2758    1.0280   -1.8443 H         1 <0>         0.1457
     57 N1         -6.9682   -0.7946   -0.9835 N.4       1 <0>        -0.3933
     58 H27        -6.5571   -1.4588   -0.3171 H         1 <0>         0.4274
@<TRIPOS>BOND
     1    1    2 1
     2    1   31 1
     3    1   32 1
     4    1   33 1
     5    2    3 1
     6    3    8 ar
     7    3    4 ar
     8    4    5 ar
     9    4   34 1
    10    5    6 ar
    11    5   35 1
    12    6    7 ar
    13    6   36 1
    14    7    8 ar
    15    7   37 1
    16    8    9 1
    17    9   38 1
    18    9   39 1
    19    9   57 1
    20   10   11 1
    21   10   40 1
    22   10   41 1
    23   10   57 1
    24   11   12 1
    25   11   42 1
    26   11   43 1
    27   12   13 1
    28   13   18 ar
    29   13   14 ar
    30   14   15 ar
    31   14   30 1
    32   15   16 ar
    33   15   44 1
    34   16   17 ar
    35   16   21 1
    36   17   18 ar
    37   17   45 1
    38   18   19 1
    39   19   20 1
    40   20   46 1
    41   20   47 1
    42   20   48 1
    43   21   26 ar
    44   21   22 ar
    45   22   23 ar
    46   22   49 1
    47   23   24 ar
    48   23   29 1
    49   24   25 ar
    50   24   50 1
    51   25   26 ar
    52   25   51 1
    53   26   27 1
    54   27   28 1
    55   28   52 1
    56   28   53 1
    57   28   54 1
    58   30   55 1
    59   30   56 1
    60   30   57 1
    61   57   58 1
@<TRIPOS>MOLECULE
ZINC35486142
   56    59     0     0     0
SMALL
USER_CHARGES

@<TRIPOS>ATOM
      1 C1          0.0823    1.4510   -0.2163 C.3       1 <0>        -0.1871
      2 C2          0.0237   -0.0664   -0.0289 C.3       1 <0>        -0.0186
      3 N1         -1.3740   -0.4850    0.1418 N.4       1 <0>        -0.3822
      4 C3         -2.1159   -0.2330   -1.1009 C.3       1 <0>        -0.0141
      5 C4         -3.5996   -0.5332   -0.8788 C.3       1 <0>        -0.1891
      6 C5         -1.4206   -1.9189    0.4577 C.3       1 <0>        -0.0399
      7 C6         -0.7562   -2.1642    1.8139 C.3       1 <0>         0.1175
      8 N2         -0.8026   -3.5942    2.1289 N.am      1 <0>        -0.6004
      9 C7         -1.8824   -4.2859    2.8518 C.3       1 <0>         0.2362
     10 H1         -2.8212   -4.1908    2.3062 H         1 <0>         0.1290
     11 C8         -1.4712   -5.7199    2.9232 C.2       1 <0>        -0.2488
     12 C9         -2.1281   -6.8847    3.5259 C.2       1 <0>         0.4550
     13 O1         -3.2718   -6.8628    3.9452 O.2       1 <0>        -0.4264
     14 C10        -1.2667   -8.0930    3.5758 C.ar      1 <0>        -0.2057
     15 C11        -1.6699   -9.2189    4.2934 C.ar      1 <0>        -0.0349
     16 C12        -0.8631  -10.3218    4.3338 C.ar      1 <0>        -0.0970
     17 C13         0.3529  -10.3228    3.6647 C.ar      1 <0>        -0.0509
     18 C14         0.7660   -9.2206    2.9505 C.ar      1 <0>        -0.1256
     19 C15        -0.0404   -8.0840    2.8913 C.ar      1 <0>         0.1279
     20 O2          0.3802   -7.0163    2.1755 O.3       1 <0>        -0.1776
     21 C16        -0.2657   -5.8394    2.2922 C.2       1 <0>         0.0933
     22 C17         0.1336   -4.5084    1.8024 C.2       1 <0>         0.5784
     23 O3          1.1579   -4.2690    1.1945 O.2       1 <0>        -0.4692
     24 C18        -1.2952  -11.5404    5.1080 C.3       1 <0>        -0.1204
     25 C19        -2.0279   -3.7155    4.2390 C.ar      1 <0>        -0.1006
     26 C20        -0.9031   -3.3766    4.9682 C.ar      1 <0>        -0.0866
     27 C21        -1.0351   -2.8538    6.2407 C.ar      1 <0>        -0.0947
     28 C22        -2.2932   -2.6688    6.7855 C.ar      1 <0>        -0.0195
     29 C23        -3.4195   -3.0077    6.0552 C.ar      1 <0>        -0.0298
     30 C24        -3.2857   -3.5261    4.7795 C.ar      1 <0>        -0.0695
     31 Cl1        -4.9990   -2.7767    6.7375 Cl        1 <0>        -0.0290
     32 Cl2        -2.4596   -2.0127    8.3841 Cl        1 <0>        -0.0294
     33 H2          1.1228    1.7753   -0.2311 H         1 <0>         0.1079
     34 H3         -0.3953    1.7194   -1.1586 H         1 <0>         0.0819
     35 H4         -0.4388    1.9392    0.6072 H         1 <0>         0.0808
     36 H5          0.4455   -0.5574   -0.9059 H         1 <0>         0.1333
     37 H6          0.5971   -0.3457    0.8550 H         1 <0>         0.1312
     38 H7         -1.9958    0.8109   -1.3904 H         1 <0>         0.1359
     39 H8         -1.7294   -0.8761   -1.8915 H         1 <0>         0.1307
     40 H9         -4.1656   -0.2421   -1.7637 H         1 <0>         0.1080
     41 H10        -3.7314   -1.6000   -0.6980 H         1 <0>         0.0796
     42 H11        -3.9590    0.0285   -0.0166 H         1 <0>         0.0812
     43 H12        -2.4588   -2.2488    0.4968 H         1 <0>         0.1397
     44 H13        -0.8905   -2.4782   -0.3132 H         1 <0>         0.1382
     45 H14         0.2820   -1.8343    1.7748 H         1 <0>         0.1155
     46 H15        -1.2864   -1.6049    2.5847 H         1 <0>         0.1148
     47 H16        -2.6154   -9.2193    4.8153 H         1 <0>         0.1472
     48 H17         0.9831  -11.1989    3.7050 H         1 <0>         0.1480
     49 H18         1.7152   -9.2362    2.4355 H         1 <0>         0.1505
     50 H19        -1.8623  -12.2036    4.4547 H         1 <0>         0.0800
     51 H20        -0.4155  -12.0640    5.4821 H         1 <0>         0.0756
     52 H21        -1.9205  -11.2350    5.9469 H         1 <0>         0.0741
     53 H22         0.0793   -3.5209    4.5433 H         1 <0>         0.1329
     54 H23        -0.1560   -2.5900    6.8100 H         1 <0>         0.1495
     55 H24        -4.1640   -3.7869    4.2077 H         1 <0>         0.1499
     56 H25        -1.7925    0.0392    0.8955 H         1 <0>         0.4234
@<TRIPOS>BOND
     1    1    2 1
     2    1   33 1
     3    1   34 1
     4    1   35 1
     5    2    3 1
     6    2   36 1
     7    2   37 1
     8    3    4 1
     9    3    6 1
    10    3   56 1
    11    4    5 1
    12    4   38 1
    13    4   39 1
    14    5   40 1
    15    5   41 1
    16    5   42 1
    17    6    7 1
    18    6   43 1
    19    6   44 1
    20    7    8 1
    21    7   45 1
    22    7   46 1
    23    8   22 am
    24    8    9 1
    25    9   10 1
    26    9   11 1
    27    9   25 1
    28   11   21 2
    29   11   12 1
    30   12   13 2
    31   12   14 1
    32   14   19 ar
    33   14   15 ar
    34   15   16 ar
    35   15   47 1
    36   16   17 ar
    37   16   24 1
    38   17   18 ar
    39   17   48 1
    40   18   19 ar
    41   18   49 1
    42   19   20 1
    43   20   21 1
    44   21   22 1
    45   22   23 2
    46   24   50 1
    47   24   51 1
    48   24   52 1
    49   25   30 ar
    50   25   26 ar
    51   26   27 ar
    52   26   53 1
    53   27   28 ar
    54   27   54 1
    55   28   29 ar
    56   28   32 1
    57   29   30 ar
    58   29   31 1
    59   30   55 1
@<TRIPOS>MOLECULE
ZINC39702026
   51    55     0     0     0
SMALL
USER_CHARGES

@<TRIPOS>ATOM
      1 C1          0.7333    1.1757   -0.7436 C.3       1 <0>         0.0247
      2 O1          0.6265   -0.2465   -0.6548 O.3       1 <0>        -0.3193
      3 C2          1.2746   -0.8507    0.3757 C.ar      1 <0>         0.1457
      4 C3          1.9938   -0.0897    1.2860 C.ar      1 <0>        -0.2050
      5 C4          2.6513   -0.7061    2.3327 C.ar      1 <0>        -0.0643
      6 C5          2.5932   -2.0805    2.4738 C.ar      1 <0>        -0.1543
      7 C6          1.8777   -2.8411    1.5678 C.ar      1 <0>        -0.0579
      8 C7          1.2135   -2.2287    0.5224 C.ar      1 <0>        -0.1385
      9 C8          0.4286   -3.0578   -0.4613 C.3       1 <0>         0.1057
     10 H1          0.5042   -2.6432   -1.4665 H         1 <0>         0.1078
     11 C9         -1.0504   -3.1856   -0.0235 C.3       1 <0>        -0.1371
     12 C10        -1.3819   -4.6164   -0.4023 C.2       1 <0>         0.0677
     13 N1         -0.2897   -5.2410   -0.6176 N.2       1 <0>        -0.2569
     14 O2          0.8580   -4.4347   -0.4359 O.3       1 <0>        -0.1585
     15 C11        -2.7666   -5.2016   -0.5074 C.3       1 <0>        -0.0555
     16 H2         -3.2721   -5.0290    0.4427 H         1 <0>         0.1979
     17 C12        -2.6258   -6.7001   -0.6943 C.2       1 <0>         0.2868
     18 C13        -3.2002   -7.2531   -1.8423 C.ar      1 <0>        -0.1889
     19 C14        -3.1165   -8.6386   -2.0942 C.ar      1 <0>         0.0487
     20 C15        -3.6849   -9.1512   -3.2196 C.ar      1 <0>        -0.1522
     21 C16        -4.3502   -8.3340   -4.1317 C.ar      1 <0>         0.0889
     22 C17        -4.4635   -6.9902   -3.9426 C.ar      1 <0>        -0.1984
     23 C18        -3.9003   -6.3916   -2.8015 C.ar      1 <0>         0.3386
     24 N2         -4.0124   -5.0717   -2.6179 N.am      1 <0>        -0.5990
     25 C19        -3.5137   -4.4367   -1.5761 C.2       1 <0>         0.5316
     26 O3         -3.6550   -3.2321   -1.4749 O.2       1 <0>        -0.4181
     27 Br1        -3.5691  -11.0090   -3.5525 Br        1 <0>         0.0168
     28 C20        -1.9420   -7.5036    0.2525 C.ar      1 <0>        -0.1760
     29 C21        -0.7776   -8.1963   -0.1178 C.ar      1 <0>        -0.0341
     30 C22        -0.1206   -8.9738    0.8097 C.ar      1 <0>        -0.1180
     31 C23        -0.6046   -9.0744    2.1039 C.ar      1 <0>        -0.0484
     32 C24        -1.7524   -8.3952    2.4793 C.ar      1 <0>        -0.1186
     33 C25        -2.4211   -7.6078    1.5687 C.ar      1 <0>        -0.0550
     34 H3          1.7811    1.4553   -0.8525 H         1 <0>         0.0607
     35 H4          0.1712    1.5289   -1.6081 H         1 <0>         0.1046
     36 H5          0.3288    1.6277    0.1621 H         1 <0>         0.0603
     37 H6          2.0398    0.9837    1.1761 H         1 <0>         0.1357
     38 H7          3.2116   -0.1142    3.0414 H         1 <0>         0.1322
     39 H8          3.1080   -2.5606    3.2929 H         1 <0>         0.1307
     40 H9          1.8341   -3.9143    1.6799 H         1 <0>         0.1334
     41 H10        -1.1502   -3.0367    1.0517 H         1 <0>         0.1169
     42 H11        -1.6787   -2.4842   -0.5725 H         1 <0>         0.1228
     43 H12        -2.6047   -9.2878   -1.3992 H         1 <0>         0.1750
     44 H13        -4.7878   -8.7789   -5.0131 H         1 <0>         0.1755
     45 H14        -4.9860   -6.3846   -4.6684 H         1 <0>         0.1802
     46 H15        -0.3990   -8.1198   -1.1263 H         1 <0>         0.1417
     47 H16         0.7750   -9.5073    0.5271 H         1 <0>         0.1481
     48 H17        -0.0839   -9.6869    2.8251 H         1 <0>         0.1445
     49 H18        -2.1217   -8.4806    3.4906 H         1 <0>         0.1471
     50 H19        -3.3133   -7.0759    1.8644 H         1 <0>         0.1399
     51 H20        -4.4864   -4.5540   -3.2874 H         1 <0>         0.4439
@<TRIPOS>BOND
     1    1    2 1
     2    1   34 1
     3    1   35 1
     4    1   36 1
     5    2    3 1
     6    3    8 ar
     7    3    4 ar
     8    4    5 ar
     9    4   37 1
    10    5    6 ar
    11    5   38 1
    12    6    7 ar
    13    6   39 1
    14    7    8 ar
    15    7   40 1
    16    8    9 1
    17    9   10 1
    18    9   14 1
    19    9   11 1
    20   11   12 1
    21   11   41 1
    22   11   42 1
    23   12   13 2
    24   12   15 1
    25   13   14 1
    26   15   16 1
    27   15   25 1
    28   15   17 1
    29   17   18 2
    30   17   28 1
    31   18   23 ar
    32   18   19 ar
    33   19   20 ar
    34   19   43 1
    35   20   21 ar
    36   20   27 1
    37   21   22 ar
    38   21   44 1
    39   22   23 ar
    40   22   45 1
    41   23   24 2
    42   24   25 am
    43   24   51 1
    44   25   26 2
    45   28   33 ar
    46   28   29 ar
    47   29   30 ar
    48   29   46 1
    49   30   31 ar
    50   30   47 1
    51   31   32 ar
    52   31   48 1
    53   32   33 ar
    54   32   49 1
    55   33   50 1
@<TRIPOS>MOLECULE
ZINC63137047
   64    68     0     0     0
SMALL
USER_CHARGES

@<TRIPOS>ATOM
      1 C1         -0.0514    1.4684    0.0502 C.3       1 <0>        -0.1553
      2 C2         -0.0226   -0.0612    0.0344 C.3       1 <0>        -0.1266
      3 C3          0.6950   -0.5448   -1.2274 C.3       1 <0>        -0.1187
      4 C4          0.7237   -2.0744   -1.2432 C.3       1 <0>        -0.1189
      5 C5          1.4413   -2.5580   -2.5050 C.3       1 <0>        -0.1323
      6 C6          1.4701   -4.0876   -2.5209 C.3       1 <0>         0.1039
      7 N1          2.1572   -4.5506   -3.7291 N.am      1 <0>        -0.5954
      8 C7          1.3646   -4.7766   -4.9261 C.3       1 <0>         0.0979
      9 C8          2.1942   -5.2577   -6.0699 C.2       1 <0>         0.5098
     10 O1          1.6304   -5.4800   -7.1204 O.2       1 <0>        -0.4651
     11 N2          3.5161   -5.4607   -6.0189 N.am      1 <0>        -0.6061
     12 C9          4.3059   -5.2110   -4.8178 C.3       1 <0>         0.1345
     13 H1          4.7857   -6.1442   -4.5228 H         1 <0>         0.1269
     14 C10         3.4749   -4.7363   -3.6718 C.2       1 <0>         0.5170
     15 O2          4.0349   -4.5092   -2.6203 O.2       1 <0>        -0.5104
     16 C11         5.4057   -4.1761   -5.1184 C.3       1 <0>        -0.0847
     17 C12         6.0458   -4.5945   -6.4189 C.2       1 <0>         0.0496
     18 C13         7.3158   -4.7833   -6.7541 C.ar      1 <0>        -0.1497
     19 C14         8.5691   -4.5479   -6.0191 C.ar      1 <0>        -0.0013
     20 C15         9.7162   -4.8795   -6.6685 C.ar      1 <0>        -0.1558
     21 C16         9.7422   -5.4151   -7.9600 C.ar      1 <0>         0.0579
     22 C17         8.6390   -5.6551   -8.7128 C.ar      1 <0>        -0.2075
     23 C18         7.3725   -5.3395   -8.1405 C.ar      1 <0>         0.3358
     24 N3          6.1754   -5.4434   -8.6378 N.pl3     1 <0>        -0.5666
     25 C19         5.2226   -4.9142   -7.6614 C.3       1 <0>         0.0738
     26 H2          4.7428   -4.0138   -8.0451 H         1 <0>         0.1805
     27 C20         4.1861   -5.9597   -7.2411 C.3       1 <0>         0.1984
     28 H3          4.6814   -6.9075   -7.0304 H         1 <0>         0.1144
     29 C21         3.1721   -6.1449   -8.3405 C.ar      1 <0>        -0.0438
     30 C22         2.8251   -5.0775   -9.1478 C.ar      1 <0>        -0.1298
     31 C23         1.8952   -5.2473  -10.1561 C.ar      1 <0>        -0.0911
     32 C24         1.3122   -6.4847  -10.3576 C.ar      1 <0>        -0.1181
     33 C25         1.6598   -7.5520   -9.5511 C.ar      1 <0>        -0.0577
     34 C26         2.5932   -7.3831   -8.5453 C.ar      1 <0>        -0.1166
     35 C27         1.0240   -8.9006   -9.7705 C.3       1 <0>        -0.1217
     36 H4          0.9692    1.8511    0.0434 H         1 <0>         0.0534
     37 H5         -0.5812    1.8310   -0.8306 H         1 <0>         0.0534
     38 H6         -0.5626    1.8129    0.9492 H         1 <0>         0.0561
     39 H7          0.5073   -0.4238    0.9152 H         1 <0>         0.0622
     40 H8         -1.0432   -0.4439    0.0412 H         1 <0>         0.0620
     41 H9          0.1651   -0.1822   -2.1082 H         1 <0>         0.0608
     42 H10         1.7156   -0.1621   -1.2342 H         1 <0>         0.0610
     43 H11         1.2536   -2.4370   -0.3624 H         1 <0>         0.0675
     44 H12        -0.2968   -2.4571   -1.2364 H         1 <0>         0.0660
     45 H13         0.9115   -2.1954   -3.3859 H         1 <0>         0.0638
     46 H14         2.4619   -2.1753   -2.5118 H         1 <0>         0.0680
     47 H15         2.0000   -4.4502   -1.6400 H         1 <0>         0.0988
     48 H16         0.4495   -4.4703   -2.5141 H         1 <0>         0.0885
     49 H17         0.5982   -5.5203   -4.7076 H         1 <0>         0.1217
     50 H18         0.8784   -3.8432   -5.2097 H         1 <0>         0.1205
     51 H19         4.9667   -3.1837   -5.2205 H         1 <0>         0.1297
     52 H20         6.1476   -4.1771   -4.3198 H         1 <0>         0.1388
     53 H21         8.5768   -4.1351   -5.0211 H         1 <0>         0.1723
     54 H22        10.6562   -4.7208   -6.1610 H         1 <0>         0.1570
     55 H23        10.7050   -5.6535   -8.3871 H         1 <0>         0.1596
     56 H24         8.7176   -6.0698   -9.7069 H         1 <0>         0.1705
     57 H25         3.2805   -4.1109   -8.9904 H         1 <0>         0.1065
     58 H26         1.6236   -4.4134  -10.7863 H         1 <0>         0.1232
     59 H27         0.5850   -6.6172  -11.1451 H         1 <0>         0.1242
     60 H28         2.8676   -8.2180   -7.9175 H         1 <0>         0.1165
     61 H29         1.6238   -9.4744  -10.4770 H         1 <0>         0.0738
     62 H30         0.9694   -9.4351   -8.8222 H         1 <0>         0.0673
     63 H31         0.0191   -8.7677  -10.1711 H         1 <0>         0.0717
     64 H32         5.9521   -5.8095   -9.5079 H         1 <0>         0.4580
@<TRIPOS>BOND
     1    1    2 1
     2    1   36 1
     3    1   37 1
     4    1   38 1
     5    2    3 1
     6    2   39 1
     7    2   40 1
     8    3    4 1
     9    3   41 1
    10    3   42 1
    11    4    5 1
    12    4   43 1
    13    4   44 1
    14    5    6 1
    15    5   45 1
    16    5   46 1
    17    6    7 1
    18    6   47 1
    19    6   48 1
    20    7   14 am
    21    7    8 1
    22    8    9 1
    23    8   49 1
    24    8   50 1
    25    9   10 2
    26    9   11 am
    27   11   27 1
    28   11   12 1
    29   12   13 1
    30   12   14 1
    31   12   16 1
    32   14   15 2
    33   16   17 1
    34   16   51 1
    35   16   52 1
    36   17   25 1
    37   17   18 2
    38   18   23 ar
    39   18   19 ar
    40   19   20 ar
    41   19   53 1
    42   20   21 ar
    43   20   54 1
    44   21   22 ar
    45   21   55 1
    46   22   23 ar
    47   22   56 1
    48   23   24 2
    49   24   25 1
    50   24   64 1
    51   25   26 1
    52   25   27 1
    53   27   28 1
    54   27   29 1
    55   29   34 ar
    56   29   30 ar
    57   30   31 ar
    58   30   57 1
    59   31   32 ar
    60   31   58 1
    61   32   33 ar
    62   32   59 1
    63   33   34 ar
    64   33   35 1
    65   34   60 1
    66   35   61 1
    67   35   62 1
    68   35   63 1
@<TRIPOS>MOLECULE
ZINC64058122
   66    69     0     0     0
SMALL
USER_CHARGES

@<TRIPOS>ATOM
      1 C1         -2.1412   -3.0123    0.4603 C.3       1 <0>        -0.1482
      2 C2         -1.7547   -1.6372    1.0085 C.3       1 <0>        -0.1176
      3 C3         -0.6644   -1.7993    2.0696 C.3       1 <0>        -0.1348
      4 C4         -1.2383   -0.7755   -0.1148 C.2       1 <0>         0.5214
      5 O1         -0.0440   -0.6291   -0.2669 O.2       1 <0>        -0.5308
      6 N1         -2.1036   -0.1677   -0.9504 N.am      1 <0>        -0.6079
      7 C5         -3.5452   -0.2617   -0.7074 C.3       1 <0>         0.0698
      8 C6         -1.6026    0.5871   -2.1017 C.3       1 <0>         0.1669
      9 H1         -2.4428    1.0095   -2.6528 H         1 <0>         0.0871
     10 C7         -0.8096   -0.3470   -3.0179 C.3       1 <0>        -0.1018
     11 C8         -1.7422   -1.3588   -3.6323 C.ar      1 <0>        -0.0818
     12 C9         -1.9798   -2.5594   -2.9897 C.ar      1 <0>        -0.1122
     13 C10        -2.8352   -3.4875   -3.5533 C.ar      1 <0>        -0.1174
     14 C11        -3.4534   -3.2149   -4.7593 C.ar      1 <0>        -0.1206
     15 C12        -3.2165   -2.0139   -5.4014 C.ar      1 <0>        -0.1167
     16 C13        -2.3644   -1.0840   -4.8357 C.ar      1 <0>        -0.1200
     17 C14        -0.6929    1.7166   -1.6142 C.3       1 <0>        -0.1081
     18 C15        -0.2461    2.5629   -2.8085 C.3       1 <0>        -0.1315
     19 C16         0.6920    3.6716   -2.3212 C.3       1 <0>         0.1118
     20 N2          0.0150    4.4324   -1.2622 N.am      1 <0>        -0.5875
     21 C17        -0.5336    3.7044   -0.1099 C.3       1 <0>         0.0898
     22 C18        -1.4580    2.5953   -0.6220 C.3       1 <0>        -0.1256
     23 C19        -0.1002    5.7726   -1.3459 C.2       1 <0>         0.5251
     24 O2          0.3572    6.3620   -2.3021 O.2       1 <0>        -0.5026
     25 C20        -0.7975    6.5388   -0.2515 C.3       1 <0>         0.0662
     26 H2         -1.8250    6.1907   -0.1457 H         1 <0>         0.1968
     27 C21        -0.0541    6.3740    1.0553 C.2       1 <0>         0.0264
     28 C22         0.3314    7.6162    1.4264 C.ar      1 <0>        -0.1467
     29 C23         1.0780    8.1210    2.5849 C.ar      1 <0>        -0.0151
     30 C24         1.3155    9.4487    2.6844 C.ar      1 <0>        -0.1457
     31 C25         0.8676   10.3525    1.7112 C.ar      1 <0>         0.0608
     32 C26         0.1756    9.9645    0.6191 C.ar      1 <0>        -0.2078
     33 C27        -0.1306    8.5911    0.4127 C.ar      1 <0>         0.3378
     34 N3         -0.7782    7.9754   -0.5486 N.pl3     1 <0>        -0.5570
     35 H3         -2.4536   -3.6565    1.2822 H         1 <0>         0.0722
     36 H4         -2.9624   -2.9033   -0.2482 H         1 <0>         0.0629
     37 H5         -1.2831   -3.4568   -0.0438 H         1 <0>         0.0630
     38 H6         -2.6296   -1.1653    1.4557 H         1 <0>         0.0921
     39 H7          0.2105   -2.2711    1.6225 H         1 <0>         0.0673
     40 H8         -0.3891   -0.8196    2.4602 H         1 <0>         0.0555
     41 H9         -1.0379   -2.4225    2.8821 H         1 <0>         0.0639
     42 H10        -3.7271   -0.9011    0.1565 H         1 <0>         0.0846
     43 H11        -3.9468    0.7330   -0.5141 H         1 <0>         0.0594
     44 H12        -4.0344   -0.6871   -1.5836 H         1 <0>         0.0658
     45 H13        -0.3344    0.2355   -3.8072 H         1 <0>         0.0827
     46 H14        -0.0452   -0.8631   -2.4370 H         1 <0>         0.0942
     47 H15        -1.4968   -2.7724   -2.0475 H         1 <0>         0.1168
     48 H16        -3.0203   -4.4259   -3.0516 H         1 <0>         0.1210
     49 H17        -4.1212   -3.9403   -5.1999 H         1 <0>         0.1220
     50 H18        -3.6993   -1.8010   -6.3438 H         1 <0>         0.1217
     51 H19        -2.1822   -0.1441   -5.3356 H         1 <0>         0.1182
     52 H20         0.1824    1.2916   -1.1229 H         1 <0>         0.1075
     53 H21         0.2784    1.9316   -3.5258 H         1 <0>         0.0913
     54 H22        -1.1191    3.0085   -3.2855 H         1 <0>         0.0706
     55 H23         1.6063    3.2291   -1.9258 H         1 <0>         0.0854
     56 H24         0.9342    4.3361   -3.1506 H         1 <0>         0.1009
     57 H25         0.2807    3.2646    0.4659 H         1 <0>         0.0918
     58 H26        -1.1001    4.3905    0.5198 H         1 <0>         0.0797
     59 H27        -2.3196    3.0406   -1.1195 H         1 <0>         0.0692
     60 H28        -1.7960    1.9872    0.2171 H         1 <0>         0.0849
     61 H29         0.1314    5.4512    1.5849 H         1 <0>         0.2141
     62 H30         1.4322    7.4423    3.3467 H         1 <0>         0.1669
     63 H31         1.8644    9.8223    3.5362 H         1 <0>         0.1617
     64 H32         1.0847   11.4025    1.8407 H         1 <0>         0.1647
     65 H33        -0.1472   10.7010   -0.1019 H         1 <0>         0.1644
     66 H34        -1.1770    8.3982   -1.3252 H         1 <0>         0.4607
@<TRIPOS>BOND
     1    1    2 1
     2    1   35 1
     3    1   36 1
     4    1   37 1
     5    2    3 1
     6    2    4 1
     7    2   38 1
     8    3   39 1
     9    3   40 1
    10    3   41 1
    11    4    5 2
    12    4    6 am
    13    6    7 1
    14    6    8 1
    15    7   42 1
    16    7   43 1
    17    7   44 1
    18    8    9 1
    19    8   10 1
    20    8   17 1
    21   10   11 1
    22   10   45 1
    23   10   46 1
    24   11   16 ar
    25   11   12 ar
    26   12   13 ar
    27   12   47 1
    28   13   14 ar
    29   13   48 1
    30   14   15 ar
    31   14   49 1
    32   15   16 ar
    33   15   50 1
    34   16   51 1
    35   17   22 1
    36   17   18 1
    37   17   52 1
    38   18   19 1
    39   18   53 1
    40   18   54 1
    41   19   20 1
    42   19   55 1
    43   19   56 1
    44   20   21 1
    45   20   23 am
    46   21   22 1
    47   21   57 1
    48   21   58 1
    49   22   59 1
    50   22   60 1
    51   23   24 2
    52   23   25 1
    53   25   26 1
    54   25   34 1
    55   25   27 1
    56   27   28 2
    57   27   61 1
    58   28   33 ar
    59   28   29 ar
    60   29   30 ar
    61   29   62 1
    62   30   31 ar
    63   30   63 1
    64   31   32 ar
    65   31   64 1
    66   32   33 ar
    67   32   65 1
    68   33   34 2
    69   34   66 1
@<TRIPOS>MOLECULE
ZINC12972976
   50    52     0     0     0
SMALL
USER_CHARGES
1-(2-ethoxyphenyl)-4-[(methyl-(o-tolylmethyl)amino)methyl]tetrazole-5-thione
@<TRIPOS>ATOM
      1 C1          1.3854    4.7601    0.6513 C.3       1 <0>        -0.1534
      2 C2          1.5827    3.4494    1.4155 C.3       1 <0>         0.0522
      3 O1          0.3820    3.1221    2.1177 O.3       1 <0>        -0.3122
      4 C3          0.3889    1.9781    2.8523 C.ar      1 <0>         0.1673
      5 C4          1.5263    1.1879    2.8965 C.ar      1 <0>        -0.1989
      6 C5          1.5317    0.0251    3.6439 C.ar      1 <0>        -0.0400
      7 C6          0.4038   -0.3537    4.3487 C.ar      1 <0>        -0.1392
      8 C7         -0.7347    0.4285    4.3096 C.ar      1 <0>        -0.0360
      9 C8         -0.7456    1.6004    3.5671 C.ar      1 <0>         0.0678
     10 N1         -1.8974    2.3993    3.5312 N.pl3     1 <0>        -0.3234
     11 C9         -2.6316    2.7904    4.5951 C.2       1 <0>         0.4354
     12 S1         -2.3393    2.4101    6.2385 S.2       1 <0>        -0.4399
     13 N2         -3.6403    3.5438    4.1061 N.pl3     1 <0>        -0.4594
     14 N3         -3.4965    3.5867    2.7140 N.2       1 <0>         0.0177
     15 N4         -2.5002    2.9324    2.3853 N.2       1 <0>         0.0800
     16 C10        -4.6954    4.1924    4.8886 C.3       1 <0>         0.2674
     17 C11        -6.4691    3.0147    3.7355 C.3       1 <0>        -0.0487
     18 C12        -6.8065    3.7907    6.0041 C.3       1 <0>         0.0505
     19 C13        -7.8251    2.7233    6.3109 C.ar      1 <0>        -0.1679
     20 C14        -9.0657    2.7561    5.7015 C.ar      1 <0>        -0.0839
     21 C15        -9.9982    1.7744    5.9792 C.ar      1 <0>        -0.1210
     22 C16        -9.6941    0.7654    6.8742 C.ar      1 <0>        -0.0763
     23 C17        -8.4558    0.7356    7.4873 C.ar      1 <0>        -0.1150
     24 C18        -7.5211    1.7147    7.2056 C.ar      1 <0>        -0.0582
     25 C19        -6.1711    1.6824    7.8745 C.3       1 <0>        -0.1293
     26 H1          0.5678    4.6461   -0.0606 H         1 <0>         0.0684
     27 H2          1.1465    5.5582    1.3542 H         1 <0>         0.0649
     28 H3          2.3013    5.0098    0.1157 H         1 <0>         0.0874
     29 H4          1.8216    2.6514    0.7126 H         1 <0>         0.0724
     30 H5          2.4003    3.5634    2.1273 H         1 <0>         0.0707
     31 H6          2.4089    1.4807    2.3472 H         1 <0>         0.1477
     32 H7          2.4191   -0.5896    3.6771 H         1 <0>         0.1445
     33 H8          0.4126   -1.2632    4.9310 H         1 <0>         0.1468
     34 H9         -1.6141    0.1303    4.8611 H         1 <0>         0.1450
     35 H10        -4.3094    4.4514    5.8746 H         1 <0>         0.1810
     36 H11        -5.0227    5.0976    4.3772 H         1 <0>         0.1816
     37 H12        -5.7425    2.5673    3.0573 H         1 <0>         0.1104
     38 H13        -7.3076    2.3318    3.8718 H         1 <0>         0.1317
     39 H14        -6.8296    3.9531    3.3141 H         1 <0>         0.1360
     40 H15        -6.2903    4.0746    6.9212 H         1 <0>         0.1438
     41 H16        -7.3089    4.6626    5.5852 H         1 <0>         0.1474
     42 H17        -9.3049    3.5467    5.0057 H         1 <0>         0.1338
     43 H18       -10.9660    1.7979    5.5004 H         1 <0>         0.1366
     44 H19       -10.4243    0.0008    7.0945 H         1 <0>         0.1367
     45 H20        -8.2183   -0.0523    8.1868 H         1 <0>         0.1368
     46 H21        -6.2135    2.2470    8.8060 H         1 <0>         0.0926
     47 H22        -5.8959    0.6495    8.0879 H         1 <0>         0.0867
     48 H23        -5.4274    2.1274    7.2135 H         1 <0>         0.0512
     49 N5         -5.8223    3.2487    5.0438 N.4       1 <0>        -0.4206
     50 H24        -5.4630    2.3562    5.4025 H         1 <0>         0.4307
@<TRIPOS>BOND
     1    1    2 1
     2    1   26 1
     3    1   27 1
     4    1   28 1
     5    2    3 1
     6    2   29 1
     7    2   30 1
     8    3    4 1
     9    4    9 ar
    10    4    5 ar
    11    5    6 ar
    12    5   31 1
    13    6    7 ar
    14    6   32 1
    15    7    8 ar
    16    7   33 1
    17    8    9 ar
    18    8   34 1
    19    9   10 1
    20   10   15 1
    21   10   11 1
    22   11   12 2
    23   11   13 1
    24   13   14 1
    25   13   16 1
    26   14   15 2
    27   16   35 1
    28   16   36 1
    29   16   49 1
    30   17   37 1
    31   17   38 1
    32   17   39 1
    33   17   49 1
    34   18   19 1
    35   18   40 1
    36   18   41 1
    37   18   49 1
    38   19   24 ar
    39   19   20 ar
    40   20   21 ar
    41   20   42 1
    42   21   22 ar
    43   21   43 1
    44   22   23 ar
    45   22   44 1
    46   23   24 ar
    47   23   45 1
    48   24   25 1
    49   25   46 1
    50   25   47 1
    51   25   48 1
    52   49   50 1
@<TRIPOS>MOLECULE
ZINC28104114
   56    58     0     0     0
SMALL
USER_CHARGES
(2R)-N-(2-cyanoethyl)-N-(3,5-dimethylphenyl)-2-(4-thiazol-2-ylpiperazin-1-yl)propanamide
@<TRIPOS>ATOM
      1 C1          2.6531   -3.0181    0.1545 C.3       1 <0>        -0.1210
      2 C2          2.9614   -1.5733    0.4521 C.ar      1 <0>        -0.0554
      3 C3          4.2185   -1.2139    0.9022 C.ar      1 <0>        -0.1270
      4 C4          4.5053    0.1108    1.1764 C.ar      1 <0>        -0.0500
      5 C5          3.5365    1.0793    1.0009 C.ar      1 <0>        -0.1551
      6 C6          2.2730    0.7216    0.5490 C.ar      1 <0>         0.1295
      7 C7          1.9863   -0.6104    0.2805 C.ar      1 <0>        -0.1624
      8 N1          1.2892    1.7004    0.3702 N.am      1 <0>        -0.5143
      9 C8          1.6317    3.1177    0.5125 C.3       1 <0>         0.0751
     10 C9          1.3514    3.5685    1.9475 C.3       1 <0>        -0.0450
     11 C10         1.6954    4.9925    2.0905 C.1       1 <0>         0.1848
     12 N2          1.9610    6.0915    2.2009 N.1       1 <0>        -0.3889
     13 C11         0.0266    1.3393    0.0669 C.2       1 <0>         0.5082
     14 O1         -0.2414    0.1716   -0.1219 O.2       1 <0>        -0.4960
     15 C12        -1.0508    2.3872   -0.0436 C.3       1 <0>         0.0088
     16 H1         -0.9831    3.0807    0.8076 H         1 <0>         0.1619
     17 C13        -0.9023    3.1333   -1.3711 C.3       1 <0>        -0.1911
     18 N3         -2.3692    1.7415    0.0105 N.4       1 <0>        -0.3903
     19 C14        -2.5418    0.8024   -1.1066 C.3       1 <0>        -0.0297
     20 C15        -3.8916    0.0939   -0.9700 C.3       1 <0>         0.0282
     21 N4         -4.9679    1.0945   -0.9557 N.pl3     1 <0>        -0.4322
     22 C16        -4.7952    2.0336    0.1614 C.3       1 <0>         0.0381
     23 C17        -3.4454    2.7420    0.0247 C.3       1 <0>        -0.0051
     24 C18        -6.2118    0.4853   -0.9048 C.2       1 <0>         0.2171
     25 N5         -7.1780    0.6460   -0.0208 N.2       1 <0>        -0.5329
     26 C19        -8.3146   -0.0173   -0.1234 C.2       1 <0>         0.0412
     27 C20        -8.4674   -0.8810   -1.1553 C.2       1 <0>        -0.2038
     28 S1         -6.8957   -0.6911   -1.9837 S.3       1 <0>         0.0997
     29 C21         5.8767    0.4981    1.6668 C.3       1 <0>        -0.1242
     30 H2          3.5456   -3.6310    0.3489 H         1 <0>         0.0708
     31 H3          2.3606   -3.1207   -0.9009 H         1 <0>         0.0740
     32 H4          1.8281   -3.3571    0.7983 H         1 <0>         0.0736
     33 H5          4.9781   -1.9693    1.0396 H         1 <0>         0.1282
     34 H6          3.7613    2.1138    1.2146 H         1 <0>         0.1285
     35 H7          1.0032   -0.8924   -0.0665 H         1 <0>         0.1781
     36 H8          2.6981    3.2619    0.2845 H         1 <0>         0.1225
     37 H9          1.0240    3.7136   -0.1844 H         1 <0>         0.1092
     38 H10         0.2850    3.4242    2.1755 H         1 <0>         0.1070
     39 H11         1.9592    2.9727    2.6444 H         1 <0>         0.1281
     40 H12        -1.6887    3.8982   -1.4518 H         1 <0>         0.1045
     41 H13        -0.9964    2.4214   -2.2043 H         1 <0>         0.0980
     42 H14         0.0849    3.6167   -1.4115 H         1 <0>         0.1141
     43 H15        -2.5108    1.3543   -2.0576 H         1 <0>         0.1383
     44 H16        -1.7323    0.0579   -1.0882 H         1 <0>         0.1825
     45 H17        -4.0353   -0.5885   -1.8207 H         1 <0>         0.1319
     46 H18        -3.9110   -0.4804   -0.0320 H         1 <0>         0.0797
     47 H19        -5.6047    2.7781    0.1430 H         1 <0>         0.1379
     48 H20        -4.8262    1.4818    1.1125 H         1 <0>         0.0818
     49 H21        -3.3005    3.4243    0.8753 H         1 <0>         0.1466
     50 H22        -3.4248    3.3160   -0.9134 H         1 <0>         0.1435
     51 H23        -9.1028    0.1222    0.6016 H         1 <0>         0.1784
     52 H24        -9.3074   -1.5111   -1.4076 H         1 <0>         0.2056
     53 H25         5.9146    1.5854    1.8289 H         1 <0>         0.0679
     54 H26         6.6286    0.2129    0.9162 H         1 <0>         0.0776
     55 H27         6.0879   -0.0213    2.6132 H         1 <0>         0.0775
     56 H28        -2.4256    1.1686    0.9479 H         1 <0>         0.4461
@<TRIPOS>BOND
     1    1    2 1
     2    1   30 1
     3    1   31 1
     4    1   32 1
     5    2    7 ar
     6    2    3 ar
     7    3    4 ar
     8    3   33 1
     9    4    5 ar
    10    4   29 1
    11    5    6 ar
    12    5   34 1
    13    6    7 ar
    14    6    8 1
    15    7   35 1
    16    8    9 1
    17    8   13 am
    18    9   10 1
    19    9   36 1
    20    9   37 1
    21   10   11 1
    22   10   38 1
    23   10   39 1
    24   11   12 3
    25   13   14 2
    26   13   15 1
    27   15   16 1
    28   15   17 1
    29   15   18 1
    30   17   40 1
    31   17   41 1
    32   17   42 1
    33   18   23 1
    34   18   19 1
    35   18   56 1
    36   19   20 1
    37   19   43 1
    38   19   44 1
    39   20   21 1
    40   20   45 1
    41   20   46 1
    42   21   22 1
    43   21   24 1
    44   22   23 1
    45   22   47 1
    46   22   48 1
    47   23   49 1
    48   23   50 1
    49   24   28 1
    50   24   25 2
    51   25   26 1
    52   26   27 2
    53   26   51 1
    54   27   28 1
    55   27   52 1
    56   29   53 1
    57   29   54 1
    58   29   55 1
@<TRIPOS>MOLECULE
ZINC40087008
   58    61     0     0     0
SMALL
USER_CHARGES

@<TRIPOS>ATOM
      1 C1          0.4301    1.6895   -0.0208 C.3       1 <0>        -0.1312
      2 C2          0.3694    0.1837   -0.0233 C.ar      1 <0>        -0.0421
      3 C3          0.3357   -0.5046   -1.2216 C.ar      1 <0>        -0.1169
      4 C4          0.2800   -1.8859   -1.2239 C.ar      1 <0>        -0.0871
      5 C5          0.2583   -2.5787   -0.0279 C.ar      1 <0>        -0.1731
      6 C6          0.2929   -1.8904    1.1704 C.ar      1 <0>        -0.0895
      7 C7          0.3530   -0.5093    1.1727 C.ar      1 <0>        -0.1131
      8 C8          0.1965   -4.0845   -0.0304 C.3       1 <0>         0.0384
      9 N1          1.5602   -4.6305   -0.0391 N.4       1 <0>        -0.3658
     10 C9          1.4798   -6.0676   -0.2906 C.3       1 <0>        -0.0088
     11 C10         2.7362   -6.5213   -1.0005 C.3       1 <0>        -0.1561
     12 C11         3.7604   -7.0164    0.0368 C.3       1 <0>         0.0988
     13 N2          3.7604   -6.1548    1.2363 N.am      1 <0>        -0.6189
     14 C12         3.6738   -4.7113    1.1539 C.3       1 <0>         0.0851
     15 C13         2.1913   -4.2725    1.1730 C.3       1 <0>        -0.0471
     16 C14         3.8435   -6.7324    2.4512 C.2       1 <0>         0.6041
     17 O1          3.8625   -7.9453    2.5483 O.2       1 <0>        -0.4910
     18 C15         3.9110   -5.8992    3.6562 C.2       1 <0>        -0.0932
     19 C16         4.1276   -6.3447    4.9286 C.2       1 <0>        -0.0955
     20 C17         4.1141   -5.2137    5.7599 C.2       1 <0>        -0.1890
     21 C18         3.8927   -4.1411    4.9685 C.2       1 <0>        -0.0031
     22 O2          3.7759   -4.5576    3.7010 O.3       1 <0>        -0.1542
     23 C19         3.7977   -2.7111    5.4347 C.3       1 <0>         0.1684
     24 N3          5.1283   -2.0989    5.4067 N.am      1 <0>        -0.4979
     25 C20         5.9245   -2.1735    6.5039 C.2       1 <0>         0.1234
     26 C21         7.1575   -1.6152    6.5021 C.2       1 <0>        -0.2160
     27 C22         7.6239   -0.9519    5.3584 C.2       1 <0>        -0.0106
     28 C23         6.8227   -0.8784    4.2570 C.2       1 <0>        -0.2447
     29 C24         5.5499   -1.4734    4.2913 C.2       1 <0>         0.5181
     30 O3          4.8245   -1.4190    3.3112 O.2       1 <0>        -0.5556
     31 H1          1.4716    2.0111   -0.0301 H         1 <0>         0.0830
     32 H2         -0.0771    2.0751   -0.9051 H         1 <0>         0.0761
     33 H3         -0.0601    2.0714    0.8748 H         1 <0>         0.0757
     34 H4          0.3526    0.0367   -2.1559 H         1 <0>         0.1355
     35 H5          0.2530   -2.4236   -2.1601 H         1 <0>         0.1311
     36 H6          0.2756   -2.4317    2.1048 H         1 <0>         0.1291
     37 H7          0.3837    0.0283    2.1088 H         1 <0>         0.1347
     38 H8         -0.3268   -4.4281    0.8619 H         1 <0>         0.1341
     39 H9         -0.3367   -4.4247   -0.9181 H         1 <0>         0.1387
     40 H10         1.3854   -6.5982    0.6569 H         1 <0>         0.1298
     41 H11         0.6121   -6.2797   -0.9152 H         1 <0>         0.1391
     42 H12         2.4930   -7.3323   -1.6869 H         1 <0>         0.1286
     43 H13         3.1594   -5.6866   -1.5593 H         1 <0>         0.0905
     44 H14         3.5093   -8.0361    0.3289 H         1 <0>         0.1125
     45 H15         4.7546   -7.0078   -0.4098 H         1 <0>         0.0905
     46 H16         4.1934   -4.2681    2.0034 H         1 <0>         0.1421
     47 H17         4.1399   -4.3727    0.2286 H         1 <0>         0.1037
     48 H18         2.1362   -3.1918    1.3033 H         1 <0>         0.1508
     49 H19         1.6812   -4.7605    2.0035 H         1 <0>         0.1267
     50 H20         4.2797   -7.3688    5.2359 H         1 <0>         0.1682
     51 H21         4.2540   -5.2029    6.8308 H         1 <0>         0.1656
     52 H22         3.1291   -2.1577    4.7753 H         1 <0>         0.1203
     53 H23         3.4074   -2.6859    6.4521 H         1 <0>         0.1320
     54 H24         5.5702   -2.6834    7.3875 H         1 <0>         0.1659
     55 H25         7.7815   -1.6805    7.3812 H         1 <0>         0.1516
     56 H26         8.6064   -0.5037    5.3498 H         1 <0>         0.1402
     57 H27         7.1643   -0.3716    3.3666 H         1 <0>         0.1509
     58 H28         2.0675   -4.2043   -0.8001 H         1 <0>         0.4172
@<TRIPOS>BOND
     1    1    2 1
     2    1   31 1
     3    1   32 1
     4    1   33 1
     5    2    7 ar
     6    2    3 ar
     7    3    4 ar
     8    3   34 1
     9    4    5 ar
    10    4   35 1
    11    5    6 ar
    12    5    8 1
    13    6    7 ar
    14    6   36 1
    15    7   37 1
    16    8    9 1
    17    8   38 1
    18    8   39 1
    19    9   15 1
    20    9   10 1
    21    9   58 1
    22   10   11 1
    23   10   40 1
    24   10   41 1
    25   11   12 1
    26   11   42 1
    27   11   43 1
    28   12   13 1
    29   12   44 1
    30   12   45 1
    31   13   14 1
    32   13   16 am
    33   14   15 1
    34   14   46 1
    35   14   47 1
    36   15   48 1
    37   15   49 1
    38   16   17 2
    39   16   18 1
    40   18   22 1
    41   18   19 2
    42   19   20 1
    43   19   50 1
    44   20   21 2
    45   20   51 1
    46   21   22 1
    47   21   23 1
    48   23   24 1
    49   23   52 1
    50   23   53 1
    51   24   29 am
    52   24   25 1
    53   25   26 2
    54   25   54 1
    55   26   27 1
    56   26   55 1
    57   27   28 2
    58   27   56 1
    59   28   29 1
    60   28   57 1
    61   29   30 2
@<TRIPOS>MOLECULE
ZINC62244728
   56    60     0     0     0
SMALL
USER_CHARGES

@<TRIPOS>ATOM
      1 C1         -2.3070   -5.3863  -10.3069 C.2       1 <0>        -0.1635
      2 C2         -2.1825   -5.9674   -9.1395 C.2       1 <0>        -0.1815
      3 C3         -0.9724   -5.6903   -8.2851 C.3       1 <0>         0.1308
      4 N1         -1.4032   -5.2259   -6.9642 N.pl3     1 <0>        -0.4636
      5 C4         -1.5271   -3.9257   -6.6045 C.2       1 <0>         0.1029
      6 C5         -1.9478   -3.8430   -5.3099 C.2       1 <0>        -0.2289
      7 C6         -2.0962   -5.2291   -4.8295 C.ar      1 <0>        -0.0652
      8 C7         -1.7458   -6.0510   -5.9128 C.ar      1 <0>         0.0904
      9 C8         -1.7935   -7.4330   -5.7638 C.ar      1 <0>        -0.1240
     10 C9         -2.1853   -7.9818   -4.5620 C.ar      1 <0>        -0.0943
     11 C10        -2.5344   -7.1685   -3.4939 C.ar      1 <0>        -0.1337
     12 C11        -2.4858   -5.7971   -3.6194 C.ar      1 <0>        -0.0691
     13 C12        -2.2025   -2.6151   -4.5447 C.2       1 <0>         0.5967
     14 O1         -1.8988   -2.5576   -3.3679 O.2       1 <0>        -0.5249
     15 N2         -2.7725   -1.5522   -5.1463 N.am      1 <0>        -0.6190
     16 C13        -2.9246   -0.2740   -4.4349 C.3       1 <0>         0.1173
     17 C14        -4.3824    0.1818   -4.5592 C.3       1 <0>         0.0426
     18 N3         -4.7637    0.2111   -5.9775 N.3       1 <0>        -0.5335
     19 C15        -4.7036   -1.1303   -6.5733 C.3       1 <0>         0.0324
     20 C16        -3.2534   -1.6381   -6.5336 C.3       1 <0>         0.1093
     21 C17        -6.0956    0.8056   -6.1524 C.3       1 <0>         0.1059
     22 C18        -6.3504    1.0445   -7.6184 C.2       1 <0>         0.1021
     23 C19        -6.1299    2.2027   -8.2781 C.2       1 <0>        -0.0024
     24 N4         -6.4886    1.9993   -9.5828 N.pl3     1 <0>        -0.3262
     25 C20        -6.4771    2.8100  -10.6807 C.2       1 <0>         0.0883
     26 C21        -6.8933    2.3499  -11.8792 C.2       1 <0>        -0.1139
     27 C22        -7.3455    1.0266  -12.0121 C.2       1 <0>        -0.0164
     28 C23        -7.3621    0.2079  -10.9259 C.2       1 <0>        -0.1262
     29 C24        -6.9239    0.7032   -9.6814 C.cat     1 <0>         0.3053
     30 N5         -6.8264    0.1453   -8.4829 N.pl3     1 <0>        -0.5079
     31 H1         -3.1742   -5.5849  -10.9192 H         1 <0>         0.1057
     32 H2         -1.5446   -4.7052  -10.6552 H         1 <0>         0.1013
     33 H3         -2.9470   -6.6451   -8.7893 H         1 <0>         0.1172
     34 H4         -0.3876   -6.6037   -8.1762 H         1 <0>         0.1023
     35 H5         -0.3613   -4.9220   -8.7589 H         1 <0>         0.0988
     36 H6         -1.3233   -3.0814   -7.2465 H         1 <0>         0.1732
     37 H7         -1.5242   -8.0753   -6.5892 H         1 <0>         0.1224
     38 H8         -2.2213   -9.0555   -4.4508 H         1 <0>         0.1304
     39 H9         -2.8399   -7.6121   -2.5579 H         1 <0>         0.1284
     40 H10        -2.7592   -5.1659   -2.7868 H         1 <0>         0.1270
     41 H11        -2.6713   -0.4078   -3.3832 H         1 <0>         0.1061
     42 H12        -2.2681    0.4734   -4.8804 H         1 <0>         0.0794
     43 H13        -5.0280   -0.5140   -4.0233 H         1 <0>         0.0520
     44 H14        -4.4892    1.1794   -4.1332 H         1 <0>         0.1001
     45 H15        -5.3447   -1.8079   -6.0093 H         1 <0>         0.0528
     46 H16        -5.0433   -1.0843   -7.6080 H         1 <0>         0.0690
     47 H17        -2.6279   -1.0193   -7.1769 H         1 <0>         0.0768
     48 H18        -3.2175   -2.6742   -6.8701 H         1 <0>         0.0999
     49 H19        -6.8513    0.1262   -5.7583 H         1 <0>         0.0733
     50 H20        -6.1438    1.7532   -5.6161 H         1 <0>         0.1290
     51 H21        -5.7432    3.1180   -7.8548 H         1 <0>         0.2281
     52 H22        -6.1321    3.8294  -10.5895 H         1 <0>         0.2015
     53 H23        -6.8790    3.0021  -12.7399 H         1 <0>         0.1838
     54 H24        -7.6787    0.6610  -12.9722 H         1 <0>         0.1753
     55 H25        -7.7081   -0.8112  -11.0163 H         1 <0>         0.1782
     56 H26        -7.0650   -0.7700   -8.2677 H         1 <0>         0.4583
@<TRIPOS>BOND
     1    1    2 2
     2    1   31 1
     3    1   32 1
     4    2    3 1
     5    2   33 1
     6    3    4 1
     7    3   34 1
     8    3   35 1
     9    4    8 1
    10    4    5 1
    11    5    6 2
    12    5   36 1
    13    6    7 1
    14    6   13 1
    15    7   12 ar
    16    7    8 ar
    17    8    9 ar
    18    9   10 ar
    19    9   37 1
    20   10   11 ar
    21   10   38 1
    22   11   12 ar
    23   11   39 1
    24   12   40 1
    25   13   14 2
    26   13   15 am
    27   15   20 1
    28   15   16 1
    29   16   17 1
    30   16   41 1
    31   16   42 1
    32   17   18 1
    33   17   43 1
    34   17   44 1
    35   18   19 1
    36   18   21 1
    37   19   20 1
    38   19   45 1
    39   19   46 1
    40   20   47 1
    41   20   48 1
    42   21   22 1
    43   21   49 1
    44   21   50 1
    45   22   30 1
    46   22   23 2
    47   23   24 1
    48   23   51 1
    49   24   29 1
    50   24   25 1
    51   25   26 2
    52   25   52 1
    53   26   27 1
    54   26   53 1
    55   27   28 2
    56   27   54 1
    57   28   29 1
    58   28   55 1
    59   29   30 2
    60   30   56 1
@<TRIPOS>MOLECULE
ZINC67203906
   53    56     0     0     0
SMALL
USER_CHARGES

@<TRIPOS>ATOM
      1 C1         -0.0444    1.4602    0.0939 C.3       1 <0>        -0.0564
      2 N1         -0.0170   -0.0081    0.0598 N.4       1 <0>        -0.3820
      3 C2          0.6791   -0.5126    1.2510 C.3       1 <0>        -0.0516
      4 C3         -1.3925   -0.5233    0.0415 C.3       1 <0>         0.0073
      5 H1         -1.9187   -0.1913    0.9365 H         1 <0>         0.1486
      6 C4         -1.3667   -2.0510   -0.0002 C.3       1 <0>        -0.0891
      7 C5         -2.7510   -2.5957   -0.2344 C.ar      1 <0>        -0.1319
      8 C6         -3.0232   -3.9076    0.1168 C.ar      1 <0>        -0.0895
      9 C7         -4.2824   -4.4370   -0.0882 C.ar      1 <0>        -0.1268
     10 C8         -5.2805   -3.6594   -0.6467 C.ar      1 <0>        -0.0857
     11 C9         -5.0177   -2.3509   -0.9987 C.ar      1 <0>        -0.1490
     12 C10        -3.7515   -1.8153   -0.7914 C.ar      1 <0>         0.1450
     13 N2         -3.5075   -0.4818   -1.1480 N.am      1 <0>        -0.5540
     14 C11        -2.1198   -0.0027   -1.2051 C.3       1 <0>         0.0857
     15 C12        -4.5297    0.3492   -1.4326 C.2       1 <0>         0.5170
     16 O1         -5.6673   -0.0711   -1.4460 O.2       1 <0>        -0.4828
     17 C13        -4.2590    1.8007   -1.7343 C.3       1 <0>        -0.1375
     18 C14        -5.5865    2.5435   -1.8991 C.3       1 <0>        -0.1094
     19 C15        -5.3117    4.0171   -2.2053 C.3       1 <0>        -0.0351
     20 C16        -6.6192    4.7487   -2.3676 C.2       1 <0>         0.2924
     21 N3         -7.2835    5.3385   -1.4158 N.2       1 <0>        -0.5305
     22 C17        -8.4068    5.8918   -1.9119 C.2       1 <0>         0.3433
     23 N4         -8.4576    5.6496   -3.2012 N.2       1 <0>        -0.3197
     24 O2         -7.2899    4.9061   -3.5163 O.3       1 <0>        -0.0960
     25 C18        -9.4129    6.6449   -1.1354 C.2       1 <0>        -0.1364
     26 C19       -10.5753    7.2284   -1.5653 C.2       1 <0>        -0.0851
     27 C20       -11.3649    7.8848   -0.6488 C.2       1 <0>        -0.1702
     28 C21       -10.9697    7.9345    0.6503 C.2       1 <0>        -0.1476
     29 S1         -9.4343    7.0246    0.6091 S.3       1 <0>         0.1328
     30 H2          0.9763    1.8425    0.1075 H         1 <0>         0.1322
     31 H3         -0.5608    1.8346   -0.7900 H         1 <0>         0.1241
     32 H4         -0.5690    1.7932    0.9895 H         1 <0>         0.1262
     33 H5          0.1545   -0.1797    2.1466 H         1 <0>         0.1248
     34 H6          0.6994   -1.6021    1.2258 H         1 <0>         0.1265
     35 H7          1.6998   -0.1304    1.2646 H         1 <0>         0.1302
     36 H8         -0.7103   -2.3778   -0.8068 H         1 <0>         0.0986
     37 H9         -0.9865   -2.4304    0.9483 H         1 <0>         0.1057
     38 H10        -2.2473   -4.5195    0.5526 H         1 <0>         0.1305
     39 H11        -4.4879   -5.4607    0.1880 H         1 <0>         0.1316
     40 H12        -6.2641   -4.0756   -0.8075 H         1 <0>         0.1343
     41 H13        -5.7960   -1.7427   -1.4354 H         1 <0>         0.1794
     42 H14        -2.1038    1.0871   -1.2138 H         1 <0>         0.1161
     43 H15        -1.6351   -0.3869   -2.1026 H         1 <0>         0.1026
     44 H16        -3.6945    2.2433   -0.9135 H         1 <0>         0.1018
     45 H17        -3.6821    1.8789   -2.6558 H         1 <0>         0.1094
     46 H18        -6.1510    2.1009   -2.7198 H         1 <0>         0.0888
     47 H19        -6.1634    2.4653   -0.9776 H         1 <0>         0.0882
     48 H20        -4.7472    4.4597   -1.3846 H         1 <0>         0.1163
     49 H21        -4.7348    4.0953   -3.1268 H         1 <0>         0.1099
     50 H22       -10.8665    7.1747   -2.6039 H         1 <0>         0.1439
     51 H23       -12.2867    8.3547   -0.9583 H         1 <0>         0.1475
     52 H24       -11.4601    8.4011    1.4919 H         1 <0>         0.1979
     53 H25         0.4687   -0.3163   -0.7692 H         1 <0>         0.4279
@<TRIPOS>BOND
     1    1    2 1
     2    1   30 1
     3    1   31 1
     4    1   32 1
     5    2    3 1
     6    2    4 1
     7    2   53 1
     8    3   33 1
     9    3   34 1
    10    3   35 1
    11    4    5 1
    12    4   14 1
    13    4    6 1
    14    6    7 1
    15    6   36 1
    16    6   37 1
    17    7   12 ar
    18    7    8 ar
    19    8    9 ar
    20    8   38 1
    21    9   10 ar
    22    9   39 1
    23   10   11 ar
    24   10   40 1
    25   11   12 ar
    26   11   41 1
    27   12   13 1
    28   13   14 1
    29   13   15 am
    30   14   42 1
    31   14   43 1
    32   15   16 2
    33   15   17 1
    34   17   18 1
    35   17   44 1
    36   17   45 1
    37   18   19 1
    38   18   46 1
    39   18   47 1
    40   19   20 1
    41   19   48 1
    42   19   49 1
    43   20   24 1
    44   20   21 2
    45   21   22 1
    46   22   23 2
    47   22   25 1
    48   23   24 1
    49   25   29 1
    50   25   26 2
    51   26   27 1
    52   26   50 1
    53   27   28 2
    54   27   51 1
    55   28   29 1
    56   28   52 1
@<TRIPOS>MOLECULE
ZINC11937147
   56    59     0     0     0
SMALL
USER_CHARGES
(3S)-3-[2-[4-(4-hydroxyphenyl)piperazin-1-yl]-2-oxo-ethyl]-4-(2-thienylmethyl)piperazin-2-one
@<TRIPOS>ATOM
      1 C1          9.2589   -1.7318    3.9012 C.2       1 <0>        -0.1790
      2 C2          9.3919   -0.8926    2.8110 C.2       1 <0>        -0.0748
      3 C3         10.6306   -0.6450    2.3194 C.2       1 <0>        -0.2690
      4 S1         11.6603   -1.6184    3.4054 S.3       1 <0>         0.0896
      5 C4         10.3710   -2.2823    4.4466 C.2       1 <0>        -0.1145
      6 C5         11.0335    0.2219    1.1544 C.3       1 <0>         0.0947
      7 C6         12.5438    1.6642    2.3844 C.3       1 <0>        -0.0208
      8 C7         12.6041    3.0117    3.1063 C.3       1 <0>         0.0869
      9 N1         12.3232    4.0949    2.1684 N.am      1 <0>        -0.7102
     10 C8         11.7226    3.8985    0.9899 C.2       1 <0>         0.5195
     11 O1         11.4993    4.8593    0.2843 O.2       1 <0>        -0.4958
     12 C9         11.3129    2.5372    0.5032 C.3       1 <0>         0.0397
     13 H1         12.0276    2.1914   -0.2436 H         1 <0>         0.1776
     14 C10         9.9209    2.6207   -0.1262 C.3       1 <0>        -0.1688
     15 C11         8.9212    3.0426    0.9196 C.2       1 <0>         0.5155
     16 O2          9.2664    3.1591    2.0764 O.2       1 <0>        -0.5557
     17 N2          7.6436    3.2905    0.5694 N.am      1 <0>        -0.5860
     18 C12         6.6519    3.7034    1.5741 C.3       1 <0>         0.1096
     19 C13         5.4228    2.7973    1.4459 C.3       1 <0>         0.0362
     20 N3          4.9455    2.8185    0.0568 N.pl3     1 <0>        -0.4850
     21 C14         5.9532    2.2712   -0.8614 C.3       1 <0>         0.0411
     22 C15         7.2041    3.1557   -0.8277 C.3       1 <0>         0.0985
     23 C16         3.7307    2.1349   -0.0666 C.ar      1 <0>         0.0912
     24 C17         3.1098    2.0397   -1.3051 C.ar      1 <0>        -0.1186
     25 C18         1.9112    1.3644   -1.4260 C.ar      1 <0>        -0.1183
     26 C19         1.3273    0.7819   -0.3109 C.ar      1 <0>         0.0896
     27 C20         1.9441    0.8811    0.9275 C.ar      1 <0>        -0.1180
     28 C21         3.1456    1.5511    1.0492 C.ar      1 <0>        -0.1515
     29 O3          0.1464    0.1179   -0.4307 O.3       1 <0>        -0.4969
     30 H2          8.2834   -1.9454    4.3126 H         1 <0>         0.1495
     31 H3          8.5220   -0.4408    2.3577 H         1 <0>         0.1375
     32 H4         10.4550   -2.9520    5.2898 H         1 <0>         0.2010
     33 H5         10.2320    0.2334    0.4158 H         1 <0>         0.1415
     34 H6         11.9402   -0.1779    0.7004 H         1 <0>         0.1466
     35 H7         12.5783    0.8562    3.1152 H         1 <0>         0.1456
     36 H8         13.3880    1.5779    1.7004 H         1 <0>         0.1419
     37 H9         11.8650    3.0262    3.9074 H         1 <0>         0.0993
     38 H10        13.5989    3.1510    3.5295 H         1 <0>         0.1279
     39 H11        12.5838    4.9972    2.4110 H         1 <0>         0.4262
     40 H12         9.6421    1.6442   -0.5222 H         1 <0>         0.1329
     41 H13         9.9310    3.3514   -0.9349 H         1 <0>         0.1573
     42 H14         6.3628    4.7396    1.3989 H         1 <0>         0.0914
     43 H15         7.0783    3.6030    2.5722 H         1 <0>         0.1064
     44 H16         4.6346    3.1578    2.1068 H         1 <0>         0.1048
     45 H17         5.6915    1.7778    1.7226 H         1 <0>         0.0519
     46 H18         6.2150    1.2591   -0.5527 H         1 <0>         0.0506
     47 H19         5.5497    2.2502   -1.8737 H         1 <0>         0.1052
     48 H20         6.9680    4.1393   -1.2338 H         1 <0>         0.0982
     49 H21         7.9955    2.6933   -1.4175 H         1 <0>         0.0972
     50 H22         3.5640    2.4938   -2.1734 H         1 <0>         0.1313
     51 H23         1.4282    1.2902   -2.3892 H         1 <0>         0.1349
     52 H24         1.4865    0.4311    1.7961 H         1 <0>         0.1320
     53 H25         3.6279    1.6247    2.0127 H         1 <0>         0.1295
     54 H26         0.2430   -0.8239   -0.6277 H         1 <0>         0.3919
     55 N4         11.2692    1.6002    1.6414 N.4       1 <0>        -0.3987
     56 H27        10.5017    1.8689    2.2682 H         1 <0>         0.4389
@<TRIPOS>BOND
     1    1    5 2
     2    1    2 1
     3    1   30 1
     4    2    3 2
     5    2   31 1
     6    3    4 1
     7    3    6 1
     8    4    5 1
     9    5   32 1
    10    6   33 1
    11    6   34 1
    12    6   55 1
    13    7    8 1
    14    7   35 1
    15    7   36 1
    16    7   55 1
    17    8    9 1
    18    8   37 1
    19    8   38 1
    20    9   10 am
    21    9   39 1
    22   10   11 2
    23   10   12 1
    24   12   13 1
    25   12   14 1
    26   12   55 1
    27   14   15 1
    28   14   40 1
    29   14   41 1
    30   15   16 2
    31   15   17 am
    32   17   22 1
    33   17   18 1
    34   18   19 1
    35   18   42 1
    36   18   43 1
    37   19   20 1
    38   19   44 1
    39   19   45 1
    40   20   21 1
    41   20   23 1
    42   21   22 1
    43   21   46 1
    44   21   47 1
    45   22   48 1
    46   22   49 1
    47   23   28 ar
    48   23   24 ar
    49   24   25 ar
    50   24   50 1
    51   25   26 ar
    52   25   51 1
    53   26   27 ar
    54   26   29 1
    55   27   28 ar
    56   27   52 1
    57   28   53 1
    58   29   54 1
    59   55   56 1
@<TRIPOS>MOLECULE
ZINC36684881
   60    63     0     0     0
SMALL
USER_CHARGES

@<TRIPOS>ATOM
      1 C1          0.6422    1.7410    0.1956 C.3       1 <0>        -0.1500
      2 C2          0.5351    0.2178    0.0989 C.3       1 <0>        -0.0973
      3 C3          1.3223   -0.2721   -1.1182 C.3       1 <0>        -0.1126
      4 C4          1.2059   -1.7951   -1.2203 C.3       1 <0>        -0.1136
      5 C5          1.7530   -2.4343    0.0513 C.3       1 <0>         0.1295
      6 C6          0.9911   -1.9385    1.2755 C.3       1 <0>        -0.1152
      7 C7          1.1083   -0.4149    1.3685 C.3       1 <0>        -0.1130
      8 C8          1.6797   -3.9410   -0.0415 C.2       1 <0>         0.5381
      9 O1          0.6839   -4.6210   -0.1667 O.2       1 <0>        -0.4562
     10 N1          2.9561   -4.3697    0.0438 N.am      1 <0>        -0.5660
     11 C9          3.8114   -3.3484    0.1761 C.2       1 <0>         0.7090
     12 O2          5.0155   -3.4833    0.2724 O.2       1 <0>        -0.5408
     13 N2          3.1879   -2.1548    0.1909 N.am      1 <0>        -0.7093
     14 C10         3.3564   -5.7782   -0.0019 C.3       1 <0>         0.1018
     15 C11         3.6150   -6.1809   -1.4308 C.2       1 <0>         0.5108
     16 O3          3.4785   -5.3711   -2.3233 O.2       1 <0>        -0.5098
     17 N3          3.9981   -7.4410   -1.7171 N.am      1 <0>        -0.7245
     18 C12         4.2495   -7.8324   -3.1063 C.3       1 <0>         0.1057
     19 C13         4.7696   -9.2708   -3.1447 C.3       1 <0>         0.1277
     20 H1          5.6412   -9.3595   -2.4962 H         1 <0>         0.1588
     21 C14         3.6905  -10.2080   -2.6668 C.2       1 <0>        -0.2617
     22 C15         3.5335  -10.7778   -1.4470 C.2       1 <0>        -0.0779
     23 C16         2.4547  -11.6149   -1.2320 C.2       1 <0>        -0.1718
     24 C17         1.5857  -11.8411   -2.2473 C.2       1 <0>        -0.1105
     25 S1          2.2830  -10.8496   -3.5580 S.3       1 <0>         0.0634
     26 N4          5.1461   -9.6188   -4.5213 N.4       1 <0>        -0.3919
     27 C18         6.2539   -8.7452   -4.9857 C.3       1 <0>        -0.0115
     28 C19         6.8888   -9.5611   -6.1398 C.3       1 <0>        -0.1432
     29 C20         6.7956  -11.0163   -5.6264 C.3       1 <0>        -0.1429
     30 C21         5.6731  -10.9998   -4.5723 C.3       1 <0>        -0.0058
     31 H2          1.6888    2.0256    0.3029 H         1 <0>         0.0557
     32 H3          0.2339    2.1921   -0.7088 H         1 <0>         0.0580
     33 H4          0.0800    2.0905    1.0615 H         1 <0>         0.0585
     34 H5         -0.5117   -0.0665   -0.0077 H         1 <0>         0.0773
     35 H6          0.9172    0.1848   -2.0211 H         1 <0>         0.0772
     36 H7          2.3706    0.0058   -1.0089 H         1 <0>         0.0654
     37 H8          0.1589   -2.0718   -1.3444 H         1 <0>         0.0906
     38 H9          1.7785   -2.1464   -2.0787 H         1 <0>         0.0764
     39 H10        -0.0589   -2.2172    1.1872 H         1 <0>         0.0922
     40 H11         1.4125   -2.3907    2.1733 H         1 <0>         0.0762
     41 H12         2.1571   -0.1366    1.4717 H         1 <0>         0.0659
     42 H13         0.5509   -0.0597    2.2352 H         1 <0>         0.0783
     43 H14         3.6043   -1.2829    0.2765 H         1 <0>         0.4429
     44 H15         4.2645   -5.9171    0.5848 H         1 <0>         0.1338
     45 H16         2.5590   -6.3961    0.4111 H         1 <0>         0.1305
     46 H17         4.1073   -8.0887   -1.0033 H         1 <0>         0.4083
     47 H18         3.3227   -7.7658   -3.6760 H         1 <0>         0.0915
     48 H19         4.9930   -7.1655   -3.5428 H         1 <0>         0.0990
     49 H20         4.2410  -10.5811   -0.6550 H         1 <0>         0.1448
     50 H21         2.3066  -12.0819   -0.2695 H         1 <0>         0.1528
     51 H22         0.6992  -12.4579   -2.2591 H         1 <0>         0.2011
     52 H23         5.8663   -7.7953   -5.3540 H         1 <0>         0.1401
     53 H24         6.9768   -8.5829   -4.1863 H         1 <0>         0.1391
     54 H25         6.3160   -9.4389   -7.0591 H         1 <0>         0.1003
     55 H26         7.9286   -9.2711   -6.2906 H         1 <0>         0.1204
     56 H27         6.5373  -11.6899   -6.4435 H         1 <0>         0.1072
     57 H28         7.7385  -11.3177   -5.1703 H         1 <0>         0.1061
     58 H29         6.0742  -11.2804   -3.5984 H         1 <0>         0.1327
     59 H30         4.8805  -11.6892   -4.8630 H         1 <0>         0.1324
     60 H31         4.3495   -9.5276   -5.1339 H         1 <0>         0.4262
@<TRIPOS>BOND
     1    1    2 1
     2    1   31 1
     3    1   32 1
     4    1   33 1
     5    2    7 1
     6    2    3 1
     7    2   34 1
     8    3    4 1
     9    3   35 1
    10    3   36 1
    11    4    5 1
    12    4   37 1
    13    4   38 1
    14    5   13 1
    15    5    6 1
    16    5    8 1
    17    6    7 1
    18    6   39 1
    19    6   40 1
    20    7   41 1
    21    7   42 1
    22    8    9 2
    23    8   10 am
    24   10   11 am
    25   10   14 1
    26   11   12 2
    27   11   13 am
    28   13   43 1
    29   14   15 1
    30   14   44 1
    31   14   45 1
    32   15   16 2
    33   15   17 am
    34   17   18 1
    35   17   46 1
    36   18   19 1
    37   18   47 1
    38   18   48 1
    39   19   20 1
    40   19   21 1
    41   19   26 1
    42   21   25 1
    43   21   22 2
    44   22   23 1
    45   22   49 1
    46   23   24 2
    47   23   50 1
    48   24   25 1
    49   24   51 1
    50   26   30 1
    51   26   27 1
    52   26   60 1
    53   27   28 1
    54   27   52 1
    55   27   53 1
    56   28   29 1
    57   28   54 1
    58   28   55 1
    59   29   30 1
    60   29   56 1
    61   29   57 1
    62   30   58 1
    63   30   59 1
@<TRIPOS>MOLECULE
ZINC39686320
   77    79     0     0     0
SMALL
USER_CHARGES

@<TRIPOS>ATOM
      1 C1          0.5853    1.2405   -0.2222 C.3       1 <0>        -0.1554
      2 C2          0.4856   -0.2855   -0.1735 C.3       1 <0>        -0.1205
      3 C3         -0.9871   -0.7004   -0.1679 C.3       1 <0>        -0.0757
      4 H1         -1.5011   -0.2047    0.6556 H         1 <0>         0.0772
      5 C4         -1.6363   -0.2944   -1.4926 C.3       1 <0>        -0.1556
      6 C5         -1.0890   -2.2170    0.0063 C.3       1 <0>        -0.1334
      7 C6         -2.5377   -2.6117    0.1349 C.2       1 <0>         0.5475
      8 O1         -3.4034   -1.7634    0.0915 O.2       1 <0>        -0.5278
      9 N1         -2.8712   -3.9073    0.2982 N.am      1 <0>        -0.6213
     10 C7         -1.9632   -5.0754    0.3812 C.3       1 <0>         0.1156
     11 C8         -2.5860   -5.9773    1.4703 C.3       1 <0>        -0.1159
     12 H2         -2.4746   -7.0280    1.2023 H         1 <0>         0.1163
     13 C9         -4.0732   -5.5870    1.4997 C.3       1 <0>        -0.0720
     14 C10        -4.2292   -4.4849    0.4418 C.3       1 <0>         0.1059
     15 C11        -4.9423   -6.7893    1.1438 C.3       1 <0>        -0.1337
     16 C12        -6.4182   -6.3917    1.2365 C.3       1 <0>        -0.0101
     17 N2         -6.7185   -5.9316    2.5976 N.4       1 <0>        -0.5042
     18 C13        -5.9463   -4.7199    2.8982 C.3       1 <0>        -0.0095
     19 C14        -4.4504   -5.0468    2.8759 C.3       1 <0>        -0.1451
     20 C15        -1.9435   -5.7066    2.8063 C.2       1 <0>         0.5177
     21 O2         -1.5120   -4.6017    3.0589 O.2       1 <0>        -0.5154
     22 N3         -1.8484   -6.6924    3.7204 N.am      1 <0>        -0.7261
     23 C16        -1.2238   -6.4293    5.0192 C.3       1 <0>         0.1453
     24 C17         0.2930   -6.5929    4.8981 C.3       1 <0>        -0.1431
     25 C18         0.9455   -6.2833    6.2490 C.3       1 <0>         0.1124
     26 N4          0.3274   -7.1307    7.2780 N.am      1 <0>        -0.6207
     27 C19        -1.1351   -7.1180    7.4187 C.3       1 <0>         0.1102
     28 C20        -1.7643   -7.4182    6.0546 C.3       1 <0>        -0.1412
     29 C21         1.0875   -7.9052    8.0773 C.2       1 <0>         0.5155
     30 O3          2.2937   -7.9071    7.9510 O.2       1 <0>        -0.5249
     31 C22         0.4385   -8.7688    9.1281 C.3       1 <0>        -0.1356
     32 C23         1.5169   -9.5410    9.8908 C.3       1 <0>        -0.0830
     33 C24         0.8708  -10.3213   11.0374 C.3       1 <0>        -0.1495
     34 C25         2.2149  -10.5157    8.9402 C.3       1 <0>        -0.1540
     35 H3          1.6345    1.5361   -0.2262 H         1 <0>         0.0562
     36 H4          0.1010    1.6075   -1.1271 H         1 <0>         0.0583
     37 H5          0.0916    1.6650    0.6519 H         1 <0>         0.0542
     38 H6          0.9794   -0.7100   -1.0476 H         1 <0>         0.0631
     39 H7          0.9699   -0.6525    0.7314 H         1 <0>         0.0619
     40 H8         -2.6854   -0.5900   -1.4886 H         1 <0>         0.0686
     41 H9         -1.5637    0.7860   -1.6167 H         1 <0>         0.0591
     42 H10        -1.1223   -0.7901   -2.3161 H         1 <0>         0.0486
     43 H11        -0.6530   -2.7125   -0.8612 H         1 <0>         0.0934
     44 H12        -0.5496   -2.5166    0.9049 H         1 <0>         0.0989
     45 H13        -1.9306   -5.6000   -0.5737 H         1 <0>         0.0894
     46 H14        -0.9628   -4.7588    0.6763 H         1 <0>         0.0974
     47 H15        -4.9313   -3.7253    0.7855 H         1 <0>         0.0869
     48 H16        -4.5627   -4.9125   -0.5038 H         1 <0>         0.0824
     49 H17        -4.7160   -7.1139    0.1281 H         1 <0>         0.1217
     50 H18        -4.7403   -7.6032    1.8401 H         1 <0>         0.0969
     51 H19        -6.6231   -5.5888    0.5284 H         1 <0>         0.1330
     52 H20        -7.0420   -7.2533    0.9986 H         1 <0>         0.1402
     53 H21        -7.7039   -5.7281    2.6727 H         1 <0>         0.4344
     54 H22        -6.1624   -3.9568    2.1505 H         1 <0>         0.1344
     55 H23        -6.2222   -4.3490    3.8854 H         1 <0>         0.1381
     56 H24        -4.2308   -5.7981    3.6344 H         1 <0>         0.0938
     57 H25        -3.8773   -4.1428    3.0816 H         1 <0>         0.1234
     58 H26        -2.1935   -7.5761    3.5184 H         1 <0>         0.3993
     59 H27        -1.4551   -5.4116    5.3338 H         1 <0>         0.0932
     60 H28         0.5263   -7.6173    4.6076 H         1 <0>         0.0708
     61 H29         0.6741   -5.9046    4.1437 H         1 <0>         0.0815
     62 H30         2.0136   -6.4937    6.1957 H         1 <0>         0.0995
     63 H31         0.7897   -5.2337    6.4981 H         1 <0>         0.0705
     64 H32        -1.4397   -7.8791    8.1371 H         1 <0>         0.0949
     65 H33        -1.4605   -6.1364    7.7631 H         1 <0>         0.0741
     66 H34        -2.8474   -7.3173    6.1234 H         1 <0>         0.0793
     67 H35        -1.5116   -8.4348    5.7532 H         1 <0>         0.0766
     68 H36        -0.1178   -8.1395    9.8228 H         1 <0>         0.0934
     69 H37        -0.2428   -9.4726    8.6499 H         1 <0>         0.0920
     70 H38         2.2482   -8.8408   10.2946 H         1 <0>         0.0790
     71 H39         0.1395  -11.0215   10.6336 H         1 <0>         0.0545
     72 H40         1.6390  -10.8714   11.5808 H         1 <0>         0.0613
     73 H41         0.3735   -9.6268   11.7146 H         1 <0>         0.0551
     74 H42         2.6752   -9.9598    8.1234 H         1 <0>         0.0716
     75 H43         2.9831  -11.0658    9.4836 H         1 <0>         0.0558
     76 H44         1.4836  -11.2159    8.5364 H         1 <0>         0.0466
     77 H45        -6.4760   -6.6556    3.2572 H         1 <0>         0.4270
@<TRIPOS>BOND
     1    1    2 1
     2    1   35 1
     3    1   36 1
     4    1   37 1
     5    2    3 1
     6    2   38 1
     7    2   39 1
     8    3    4 1
     9    3    5 1
    10    3    6 1
    11    5   40 1
    12    5   41 1
    13    5   42 1
    14    6    7 1
    15    6   43 1
    16    6   44 1
    17    7    8 2
    18    7    9 am
    19    9   14 1
    20    9   10 1
    21   10   11 1
    22   10   45 1
    23   10   46 1
    24   11   12 1
    25   11   13 1
    26   11   20 1
    27   13   19 1
    28   13   14 1
    29   13   15 1
    30   14   47 1
    31   14   48 1
    32   15   16 1
    33   15   49 1
    34   15   50 1
    35   16   17 1
    36   16   51 1
    37   16   52 1
    38   17   18 1
    39   17   53 1
    40   17   77 1
    41   18   19 1
    42   18   54 1
    43   18   55 1
    44   19   56 1
    45   19   57 1
    46   20   21 2
    47   20   22 am
    48   22   23 1
    49   22   58 1
    50   23   28 1
    51   23   24 1
    52   23   59 1
    53   24   25 1
    54   24   60 1
    55   24   61 1
    56   25   26 1
    57   25   62 1
    58   25   63 1
    59   26   27 1
    60   26   29 am
    61   27   28 1
    62   27   64 1
    63   27   65 1
    64   28   66 1
    65   28   67 1
    66   29   30 2
    67   29   31 1
    68   31   32 1
    69   31   68 1
    70   31   69 1
    71   32   33 1
    72   32   34 1
    73   32   70 1
    74   33   71 1
    75   33   72 1
    76   33   73 1
    77   34   74 1
    78   34   75 1
    79   34   76 1
@<TRIPOS>MOLECULE
ZINC39774558
   56    59     0     0     0
SMALL
USER_CHARGES

@<TRIPOS>ATOM
      1 C1          1.0963    2.5719    0.5511 C.3       1 <0>        -0.1579
      2 C2          1.1367    1.0583    0.3315 C.3       1 <0>        -0.0924
      3 C3          2.0398    0.7400   -0.8619 C.3       1 <0>        -0.1566
      4 C4          1.6883    0.3757    1.5848 C.3       1 <0>         0.2861
      5 C5          1.8458   -1.1233    1.3216 C.3       1 <0>        -0.1688
      6 C6          2.9986    0.9549    1.9226 C.1       1 <0>         0.1969
      7 N1          4.0099    1.4020    2.1834 N.1       1 <0>        -0.3986
      8 N2          0.7613    0.5808    2.7005 N.am      1 <0>        -0.7157
      9 C7          1.0423    0.0650    3.9136 C.2       1 <0>         0.5292
     10 O1          2.0625   -0.5689    4.0815 O.2       1 <0>        -0.4929
     11 C8          0.0888    0.2760    5.0613 C.3       1 <0>        -0.1246
     12 S1          0.7426   -0.5333    6.5473 S.3       1 <0>        -0.1610
     13 C9         -0.5047   -0.1901    7.8188 C.3       1 <0>         0.3694
     14 H1         -0.2057   -0.6255    8.7723 H         1 <0>         0.1372
     15 N3         -0.7127    1.2607    7.9578 N.pl3     1 <0>        -0.5844
     16 N4         -2.0535    1.5027    7.6369 N.2       1 <0>        -0.1735
     17 C10        -2.6743    0.3957    7.3254 C.2       1 <0>         0.2599
     18 N5         -1.8185   -0.7097    7.4050 N.pl3     1 <0>        -0.6071
     19 C11        -2.1604   -2.1074    7.1303 C.3       1 <0>         0.0757
     20 C12        -1.0781   -3.1608    7.3749 C.3       1 <0>        -0.1594
     21 C13        -1.4694   -2.7839    5.9446 C.3       1 <0>        -0.1882
     22 C14        -4.0272    0.3233    6.9600 C.2       1 <0>         0.1354
     23 C15        -4.9070    1.3888    6.7664 C.ar      1 <0>        -0.1423
     24 C16        -4.7462    2.7873    6.8640 C.ar      1 <0>        -0.0116
     25 C17        -5.8005    3.6057    6.6132 C.ar      1 <0>        -0.1490
     26 C18        -7.0519    3.0980    6.2578 C.ar      1 <0>         0.0474
     27 C19        -7.2777    1.7658    6.1453 C.ar      1 <0>        -0.2050
     28 C20        -6.2240    0.8484    6.3921 C.ar      1 <0>         0.3150
     29 N6         -6.1868   -0.4691    6.3499 N.pl3     1 <0>        -0.5989
     30 C21        -4.8352   -0.9262    6.6872 C.3       1 <0>         0.0780
     31 H2          2.1038    2.9372    0.7502 H         1 <0>         0.0591
     32 H3          0.7034    3.0582   -0.3418 H         1 <0>         0.0729
     33 H4          0.4529    2.7986    1.4012 H         1 <0>         0.0560
     34 H5          0.1293    0.6930    0.1323 H         1 <0>         0.1002
     35 H6          3.0473    1.1053   -0.6627 H         1 <0>         0.0592
     36 H7          2.0686   -0.3383   -1.0183 H         1 <0>         0.0710
     37 H8          1.6469    1.2263   -1.7547 H         1 <0>         0.0731
     38 H9          2.5355   -1.2759    0.4915 H         1 <0>         0.0837
     39 H10         2.2387   -1.6096    2.2145 H         1 <0>         0.0866
     40 H11         0.8755   -1.5522    1.0714 H         1 <0>         0.0794
     41 H12        -0.0547    1.0878    2.5662 H         1 <0>         0.4088
     42 H13        -0.0235    1.3439    5.2488 H         1 <0>         0.1114
     43 H14        -0.8815   -0.1529    4.8111 H         1 <0>         0.1099
     44 H15        -0.0509    1.9193    8.2207 H         1 <0>         0.4683
     45 H16        -3.1928   -2.3885    7.3383 H         1 <0>         0.1330
     46 H17        -0.1115   -2.8138    7.7403 H         1 <0>         0.1097
     47 H18        -1.3982   -4.1351    7.7442 H         1 <0>         0.1155
     48 H19        -2.0470   -3.5103    5.3729 H         1 <0>         0.1095
     49 H20        -0.7603   -2.1890    5.3690 H         1 <0>         0.1121
     50 H21        -3.7886    3.2052    7.1375 H         1 <0>         0.1603
     51 H22        -5.6681    4.6747    6.6908 H         1 <0>         0.1556
     52 H23        -7.8627    3.7857    6.0676 H         1 <0>         0.1607
     53 H24        -8.2571    1.4040    5.8689 H         1 <0>         0.1607
     54 H25        -4.4036   -1.4773    5.8516 H         1 <0>         0.1740
     55 H26        -4.8654   -1.5553    7.5768 H         1 <0>         0.1720
     56 H27        -6.9348   -1.0450    6.1267 H         1 <0>         0.4551
@<TRIPOS>BOND
     1    1    2 1
     2    1   31 1
     3    1   32 1
     4    1   33 1
     5    2    3 1
     6    2    4 1
     7    2   34 1
     8    3   35 1
     9    3   36 1
    10    3   37 1
    11    4    5 1
    12    4    6 1
    13    4    8 1
    14    5   38 1
    15    5   39 1
    16    5   40 1
    17    6    7 3
    18    8    9 am
    19    8   41 1
    20    9   10 2
    21    9   11 1
    22   11   12 1
    23   11   42 1
    24   11   43 1
    25   12   13 1
    26   13   14 1
    27   13   18 1
    28   13   15 1
    29   15   16 1
    30   15   44 1
    31   16   17 2
    32   17   18 1
    33   17   22 1
    34   18   19 1
    35   19   21 1
    36   19   20 1
    37   19   45 1
    38   20   21 1
    39   20   46 1
    40   20   47 1
    41   21   48 1
    42   21   49 1
    43   22   30 1
    44   22   23 2
    45   23   28 ar
    46   23   24 ar
    47   24   25 ar
    48   24   50 1
    49   25   26 ar
    50   25   51 1
    51   26   27 ar
    52   26   52 1
    53   27   28 ar
    54   27   53 1
    55   28   29 2
    56   29   30 1
    57   29   56 1
    58   30   54 1
    59   30   55 1
@<TRIPOS>MOLECULE
ZINC64392053
   49    53     0     0     0
SMALL
USER_CHARGES

@<TRIPOS>ATOM
      1 C1         -0.0167    1.3792    0.0096 C.ar      1 <0>        -0.0468
      2 C2          1.1685    2.0927    0.0021 C.ar      1 <0>        -0.1115
      3 C3          2.3774    1.4275   -0.0129 C.ar      1 <0>        -0.0548
      4 C4          2.4028    0.0332   -0.0206 C.ar      1 <0>        -0.1377
      5 C5          1.2047   -0.6805   -0.0130 C.ar      1 <0>        -0.0567
      6 C6          0.0021   -0.0041    0.0020 C.ar      1 <0>        -0.1109
      7 C7          3.6968   -0.6867   -0.0373 C.cat     1 <0>         0.5687
      8 N1          3.8800   -1.8479   -0.5856 N.pl3     1 <0>        -0.6214
      9 C8          5.2830   -2.2386   -0.4028 C.3       1 <0>         0.3063
     10 H1          5.7687   -2.3647   -1.3704 H         1 <0>         0.1669
     11 O1          5.8901   -1.1573    0.3208 O.3       1 <0>        -0.0951
     12 N2          4.8558   -0.2070    0.5205 N.pl3     1 <0>        -0.5073
     13 C9          5.3694   -3.5151    0.3936 C.ar      1 <0>        -0.0941
     14 C10         4.3875   -3.8095    1.3272 C.ar      1 <0>        -0.1358
     15 C11         4.4515   -4.9733    2.0644 C.ar      1 <0>        -0.0032
     16 C12         5.5118   -5.8542    1.8650 C.ar      1 <0>        -0.1615
     17 C13         6.5067   -5.5547    0.9182 C.ar      1 <0>         0.2118
     18 C14         6.4225   -4.3825    0.1824 C.ar      1 <0>        -0.1217
     19 N3          7.5508   -6.4509    0.7406 N.am      1 <0>        -0.6435
     20 H2          8.2447   -6.2574    0.0910 H         1 <0>         0.4398
     21 C15         7.6102   -7.5846    1.4602 C.2       1 <0>         0.7051
     22 O2          8.5419   -8.3434    1.2747 O.2       1 <0>        -0.5196
     23 N4          6.6854   -7.9147    2.3752 N.am      1 <0>        -0.5508
     24 C16         5.6285   -7.1115    2.6251 C.2       1 <0>         0.5507
     25 O3          4.7948   -7.4181    3.4554 O.2       1 <0>        -0.4536
     26 C17         6.8248   -9.1703    3.1171 C.3       1 <0>         0.1539
     27 C18         7.6221   -8.9261    4.3724 C.ar      1 <0>        -0.1626
     28 C19         8.9663   -9.2454    4.4107 C.ar      1 <0>        -0.0612
     29 C20         9.6978   -9.0216    5.5620 C.ar      1 <0>        -0.1350
     30 C21         9.0860   -8.4781    6.6764 C.ar      1 <0>        -0.0755
     31 C22         7.7423   -8.1576    6.6403 C.ar      1 <0>        -0.1622
     32 C23         7.0097   -8.3766    5.4857 C.ar      1 <0>         0.1171
     33 F1          5.6970   -8.0593    5.4477 F         1 <0>        -0.1189
     34 H3         -0.9604    1.9041    0.0260 H         1 <0>         0.1486
     35 H4          1.1475    3.1724    0.0077 H         1 <0>         0.1510
     36 H5          3.3020    1.9856   -0.0191 H         1 <0>         0.1414
     37 H6          1.2181   -1.7604   -0.0193 H         1 <0>         0.1403
     38 H7         -0.9264   -0.5557    0.0082 H         1 <0>         0.1511
     39 H8          4.9514    0.6425    0.9790 H         1 <0>         0.4893
     40 H9          3.5676   -3.1229    1.4784 H         1 <0>         0.1301
     41 H10         3.6854   -5.1997    2.7912 H         1 <0>         0.1584
     42 H11         7.1801   -4.1470   -0.5504 H         1 <0>         0.1544
     43 H12         5.8370   -9.5476    3.3816 H         1 <0>         0.1150
     44 H13         7.3397   -9.9037    2.4965 H         1 <0>         0.1188
     45 H14         9.4452   -9.6703    3.5410 H         1 <0>         0.1396
     46 H15        10.7481   -9.2717    5.5911 H         1 <0>         0.1347
     47 H16         9.6583   -8.3042    7.5756 H         1 <0>         0.1366
     48 H17         7.2645   -7.7334    7.5110 H         1 <0>         0.1380
     49 H18         3.2020   -2.3715   -1.0406 H         1 <0>         0.4739
@<TRIPOS>BOND
     1    1    6 ar
     2    1    2 ar
     3    1   34 1
     4    2    3 ar
     5    2   35 1
     6    3    4 ar
     7    3   36 1
     8    4    5 ar
     9    4    7 1
    10    5    6 ar
    11    5   37 1
    12    6   38 1
    13    7   12 1
    14    7    8 2
    15    8    9 1
    16    8   49 1
    17    9   10 1
    18    9   11 1
    19    9   13 1
    20   11   12 1
    21   12   39 1
    22   13   18 ar
    23   13   14 ar
    24   14   15 ar
    25   14   40 1
    26   15   16 ar
    27   15   41 1
    28   16   24 1
    29   16   17 ar
    30   17   18 ar
    31   17   19 1
    32   18   42 1
    33   19   20 1
    34   19   21 am
    35   21   22 2
    36   21   23 am
    37   23   24 am
    38   23   26 1
    39   24   25 2
    40   26   27 1
    41   26   43 1
    42   26   44 1
    43   27   32 ar
    44   27   28 ar
    45   28   29 ar
    46   28   45 1
    47   29   30 ar
    48   29   46 1
    49   30   31 ar
    50   30   47 1
    51   31   32 ar
    52   31   48 1
    53   32   33 1
@<TRIPOS>MOLECULE
ZINC04725262
   51    53     0     0     0
SMALL
USER_CHARGES
1-(4-chlorophenyl)sulfonyl-4-[(2,4-dimethoxyphenyl)methyl]piperazine
@<TRIPOS>ATOM
      1 C1         -8.1171   -0.1401   -6.5088 C.3       1 <0>         0.0206
      2 O1         -7.9443   -0.0921   -5.0911 O.3       1 <0>        -0.3054
      3 C2         -7.0544    0.8144   -4.6084 C.ar      1 <0>         0.2061
      4 C3         -6.3616    1.6408   -5.4822 C.ar      1 <0>        -0.2407
      5 C4         -5.4561    2.5620   -4.9921 C.ar      1 <0>        -0.0092
      6 C5         -5.2380    2.6634   -3.6312 C.ar      1 <0>        -0.2364
      7 C6         -5.9242    1.8359   -2.7539 C.ar      1 <0>         0.1880
      8 C7         -6.8374    0.9142   -3.2430 C.ar      1 <0>        -0.2434
      9 O2         -5.7052    1.9323   -1.4162 O.3       1 <0>        -0.3213
     10 C8         -6.4466    1.0490   -0.5722 C.3       1 <0>         0.0163
     11 C9         -4.2495    3.6692   -3.1000 C.3       1 <0>         0.0648
     12 C10        -2.0756    3.8859   -2.0562 C.3       1 <0>        -0.0161
     13 C11        -0.7059    3.2135   -1.9145 C.3       1 <0>         0.0947
     14 N1         -0.8975    1.8855   -1.3122 N.pl3     1 <0>        -1.0106
     15 C12        -1.8873    0.9824   -1.9189 C.3       1 <0>         0.0961
     16 C13        -3.2146    1.7449   -2.0568 C.3       1 <0>        -0.0214
     17 S1         -0.0172    1.4168    0.0098 S.o2      1 <0>         2.6896
     18 O3          0.0021   -0.0041    0.0020 O.2       1 <0>        -0.9331
     19 O4          1.1718    2.1948    0.0027 O.2       1 <0>        -0.9327
     20 C14        -0.9267    1.9002    1.4394 C.ar      1 <0>        -0.6866
     21 C15        -0.7170    3.1447    2.0036 C.ar      1 <0>        -0.0088
     22 C16        -1.4342    3.5267    3.1217 C.ar      1 <0>        -0.1282
     23 C17        -2.3541    2.6589    3.6828 C.ar      1 <0>         0.0223
     24 C18        -2.5595    1.4114    3.1210 C.ar      1 <0>        -0.1288
     25 C19        -1.8457    1.0327    1.9997 C.ar      1 <0>        -0.0090
     26 Cl1        -3.2506    3.1354    5.0910 Cl        1 <0>        -0.0386
     27 H1         -7.1659   -0.3825   -6.9827 H         1 <0>         0.0644
     28 H2         -8.8530   -0.9041   -6.7594 H         1 <0>         0.1124
     29 H3         -8.4641    0.8296   -6.8656 H         1 <0>         0.0649
     30 H4         -6.5303    1.5635   -6.5461 H         1 <0>         0.1436
     31 H5         -4.9175    3.2037   -5.6737 H         1 <0>         0.1434
     32 H6         -7.3752    0.2717   -2.5614 H         1 <0>         0.1493
     33 H7         -7.5134    1.2269   -0.7079 H         1 <0>         0.0692
     34 H8         -6.2143    0.0166   -0.8334 H         1 <0>         0.0679
     35 H9         -6.1776    1.2299    0.4685 H         1 <0>         0.1112
     36 H10        -4.6471    4.1255   -2.1935 H         1 <0>         0.1368
     37 H11        -4.0780    4.4412   -3.8502 H         1 <0>         0.1348
     38 H12        -2.4869    4.0854   -1.0667 H         1 <0>         0.1353
     39 H13        -1.9657    4.8240   -2.6003 H         1 <0>         0.1444
     40 H14        -0.0659    3.8181   -1.2720 H         1 <0>         0.1349
     41 H15        -0.2437    3.1072   -2.8960 H         1 <0>         0.1059
     42 H16        -1.5396    0.6656   -2.9022 H         1 <0>         0.1036
     43 H17        -2.0287    0.1113   -1.2792 H         1 <0>         0.1322
     44 H18        -3.6101    1.9741   -1.0673 H         1 <0>         0.1447
     45 H19        -3.9313    1.1302   -2.6015 H         1 <0>         0.1388
     46 H20         0.0043    3.8203    1.5681 H         1 <0>         0.1509
     47 H21        -1.2734    4.5006    3.5598 H         1 <0>         0.1491
     48 H22        -3.2777    0.7337    3.5584 H         1 <0>         0.1484
     49 H23        -2.0063    0.0590    1.5608 H         1 <0>         0.1499
     50 N2         -2.9687    2.9878   -2.8199 N.4       1 <0>        -0.3893
     51 H24        -2.5171    2.7478   -3.7103 H         1 <0>         0.4251
@<TRIPOS>BOND
     1    1    2 1
     2    1   27 1
     3    1   28 1
     4    1   29 1
     5    2    3 1
     6    3    8 ar
     7    3    4 ar
     8    4    5 ar
     9    4   30 1
    10    5    6 ar
    11    5   31 1
    12    6    7 ar
    13    6   11 1
    14    7    8 ar
    15    7    9 1
    16    8   32 1
    17    9   10 1
    18   10   33 1
    19   10   34 1
    20   10   35 1
    21   11   36 1
    22   11   37 1
    23   11   50 1
    24   12   13 1
    25   12   38 1
    26   12   39 1
    27   12   50 1
    28   13   14 1
    29   13   40 1
    30   13   41 1
    31   14   15 1
    32   14   17 1
    33   15   16 1
    34   15   42 1
    35   15   43 1
    36   16   44 1
    37   16   45 1
    38   16   50 1
    39   17   18 2
    40   17   19 2
    41   17   20 1
    42   20   25 ar
    43   20   21 ar
    44   21   22 ar
    45   21   46 1
    46   22   23 ar
    47   22   47 1
    48   23   24 ar
    49   23   26 1
    50   24   25 ar
    51   24   48 1
    52   25   49 1
    53   50   51 1
@<TRIPOS>MOLECULE
ZINC14950589
   56    58     0     0     0
SMALL
USER_CHARGES
N-[[(3S)-1-[2-(4-methoxyphenyl)ethyl]-3-piperidyl]methyl]-N,4-dimethyl-thiadiazole-5-carboxamide
@<TRIPOS>ATOM
      1 C1         -7.4977    8.8327    4.9647 C.3       1 <0>        -0.0839
      2 C2         -8.5814    7.7856    4.9491 C.2       1 <0>         0.1160
      3 C3         -8.3378    6.4389    4.7041 C.2       1 <0>        -0.2924
      4 S1         -9.9958    5.7934    4.8379 S.3       1 <0>         0.3831
      5 N1        -10.7514    7.1460    5.1498 N.2       1 <0>        -0.2127
      6 N2         -9.8471    8.0562    5.1618 N.2       1 <0>        -0.2733
      7 C4         -7.0722    5.7431    4.4213 C.2       1 <0>         0.6162
      8 O1         -6.0176    6.3440    4.4977 O.2       1 <0>        -0.5038
      9 N3         -7.0819    4.4399    4.0776 N.am      1 <0>        -0.6096
     10 C5         -8.3556    3.7467    3.8692 C.3       1 <0>         0.0585
     11 C6         -5.8186    3.7165    3.9124 C.3       1 <0>         0.1270
     12 C7         -5.3508    3.8323    2.4603 C.3       1 <0>        -0.1302
     13 H1         -6.1412    3.4857    1.7946 H         1 <0>         0.0964
     14 C8         -5.0196    5.2936    2.1449 C.3       1 <0>        -0.1271
     15 C9         -4.4955    5.3916    0.7095 C.3       1 <0>        -0.1463
     16 C10        -3.2688    4.4894    0.5569 C.3       1 <0>        -0.0063
     17 C11        -4.0992    2.9753    2.2569 C.3       1 <0>         0.0036
     18 C12        -2.5204    2.1875    0.5994 C.3       1 <0>        -0.0024
     19 C13        -2.2312    2.1640   -0.9028 C.3       1 <0>        -0.0938
     20 C14        -1.0852    1.2252   -1.1790 C.ar      1 <0>        -0.1505
     21 C15         0.2130    1.7013   -1.1764 C.ar      1 <0>        -0.0658
     22 C16         1.2648    0.8439   -1.4350 C.ar      1 <0>        -0.2067
     23 C17         1.0178   -0.4957   -1.6975 C.ar      1 <0>         0.1468
     24 C18        -0.2856   -0.9709   -1.6996 C.ar      1 <0>        -0.1494
     25 C19        -1.3340   -0.1095   -1.4404 C.ar      1 <0>        -0.0674
     26 O2          2.0509   -1.3412   -1.9518 O.3       1 <0>        -0.3122
     27 C20         3.3661   -0.7826   -1.9332 C.3       1 <0>         0.0235
     28 H2         -7.3746    9.2432    3.9625 H         1 <0>         0.0903
     29 H3         -7.7740    9.6314    5.6530 H         1 <0>         0.0889
     30 H4         -6.5605    8.3809    5.2898 H         1 <0>         0.1015
     31 H5         -8.7393    3.3959    4.8272 H         1 <0>         0.0769
     32 H6         -9.0733    4.4329    3.4196 H         1 <0>         0.0748
     33 H7         -8.2018    2.8957    3.2058 H         1 <0>         0.0936
     34 H8         -5.9658    2.6662    4.1641 H         1 <0>         0.0961
     35 H9         -5.0650    4.1461    4.5723 H         1 <0>         0.1007
     36 H10        -5.9190    5.9010    2.2465 H         1 <0>         0.0903
     37 H11        -4.2570    5.6517    2.8364 H         1 <0>         0.0913
     38 H12        -5.2723    5.0700    0.0157 H         1 <0>         0.0840
     39 H13        -4.2178    6.4231    0.4931 H         1 <0>         0.1119
     40 H14        -2.4874    4.8201    1.2411 H         1 <0>         0.1312
     41 H15        -2.9017    4.5459   -0.4679 H         1 <0>         0.1291
     42 H16        -4.3353    1.9321    2.4669 H         1 <0>         0.1304
     43 H17        -3.3140    3.3131    2.9332 H         1 <0>         0.1339
     44 H18        -2.7837    1.1843    0.9345 H         1 <0>         0.1305
     45 H19        -1.6343    2.5285    1.1348 H         1 <0>         0.1321
     46 H20        -1.9679    3.1673   -1.2378 H         1 <0>         0.0926
     47 H21        -3.1173    1.8230   -1.4381 H         1 <0>         0.0930
     48 H22         0.4047    2.7443   -0.9719 H         1 <0>         0.1263
     49 H23         2.2787    1.2162   -1.4325 H         1 <0>         0.1347
     50 H24        -0.4805   -2.0133   -1.9040 H         1 <0>         0.1377
     51 H25        -2.3488   -0.4790   -1.4415 H         1 <0>         0.1311
     52 H26         3.5680   -0.3614   -0.9483 H         1 <0>         0.0592
     53 H27         4.0954   -1.5629   -2.1511 H         1 <0>         0.1080
     54 H28         3.4381    0.0024   -2.6859 H         1 <0>         0.0599
     55 N4         -3.6598    3.0941    0.8504 N.4       1 <0>        -0.3926
     56 H29        -4.4380    2.8298    0.2350 H         1 <0>         0.4254
@<TRIPOS>BOND
     1    1    2 1
     2    1   28 1
     3    1   29 1
     4    1   30 1
     5    2    6 1
     6    2    3 2
     7    3    4 1
     8    3    7 1
     9    4    5 1
    10    5    6 2
    11    7    8 2
    12    7    9 am
    13    9   10 1
    14    9   11 1
    15   10   31 1
    16   10   32 1
    17   10   33 1
    18   11   12 1
    19   11   34 1
    20   11   35 1
    21   12   13 1
    22   12   17 1
    23   12   14 1
    24   14   15 1
    25   14   36 1
    26   14   37 1
    27   15   16 1
    28   15   38 1
    29   15   39 1
    30   16   40 1
    31   16   41 1
    32   16   55 1
    33   17   42 1
    34   17   43 1
    35   17   55 1
    36   18   19 1
    37   18   44 1
    38   18   45 1
    39   18   55 1
    40   19   20 1
    41   19   46 1
    42   19   47 1
    43   20   25 ar
    44   20   21 ar
    45   21   22 ar
    46   21   48 1
    47   22   23 ar
    48   22   49 1
    49   23   24 ar
    50   23   26 1
    51   24   25 ar
    52   24   50 1
    53   25   51 1
    54   26   27 1
    55   27   52 1
    56   27   53 1
    57   27   54 1
    58   55   56 1
@<TRIPOS>MOLECULE
ZINC12714828
   58    60     0     0     0
SMALL
USER_CHARGES

@<TRIPOS>ATOM
      1 C1         -0.0187    1.5258    0.0104 C.3       1 <0>        -0.1540
      2 C2          0.0021   -0.0041    0.0020 C.3       1 <0>         0.0787
      3 O1          0.6932   -0.4774    1.1597 O.3       1 <0>        -0.3630
      4 C3          0.8010   -1.8117    1.3043 C.2       1 <0>         0.6520
      5 O2          0.3213   -2.5539    0.4703 O.2       1 <0>        -0.5554
      6 N1          1.4409   -2.3241    2.3741 N.am      1 <0>        -0.6054
      7 C4          2.0207   -1.4396    3.3940 C.3       1 <0>         0.1172
      8 C5          3.4953   -1.8079    3.5854 C.3       1 <0>        -0.1577
      9 C6          3.6065   -3.2994    3.9101 C.3       1 <0>         0.0250
     10 C7          3.0511   -4.1199    2.7437 C.3       1 <0>        -0.1597
     11 C8          1.5666   -3.7779    2.5457 C.3       1 <0>         0.1322
     12 N2          5.0166   -3.6492    4.1269 N.4       1 <0>        -0.3797
     13 C9          5.5502   -2.8564    5.2411 C.3       1 <0>        -0.0155
     14 C10         7.0399   -3.1576    5.4190 C.3       1 <0>        -0.1409
     15 C11         7.2214   -4.6485    5.7183 C.3       1 <0>        -0.1283
     16 C12         6.5952   -5.4665    4.5853 C.3       1 <0>        -0.1546
     17 H1          7.1207   -5.2592    3.6531 H         1 <0>         0.1198
     18 C13         5.1220   -5.0798    4.4383 C.3       1 <0>        -0.0014
     19 C14         6.7012   -6.9350    4.9068 C.2       1 <0>         0.4127
     20 O3          5.7749   -7.5072    5.4415 O.2       1 <0>        -0.4154
     21 C15         7.9253   -7.6729    4.5729 C.ar      1 <0>        -0.1926
     22 C16         8.9996   -7.0154    3.9608 C.ar      1 <0>        -0.0762
     23 C17        10.1461   -7.7156    3.6507 C.ar      1 <0>         0.0546
     24 C18        10.2402   -9.0694    3.9427 C.ar      1 <0>        -0.0661
     25 C19         9.1884   -9.7293    4.5460 C.ar      1 <0>        -0.1904
     26 C20         8.0289   -9.0413    4.8704 C.ar      1 <0>         0.1866
     27 O4          6.9975   -9.6883    5.4683 O.3       1 <0>        -0.2842
     28 C21         7.1750  -11.0799    5.7403 C.3       1 <0>         0.0158
     29 F1         11.1824   -7.0814    3.0598 F         1 <0>        -0.1312
     30 H2          1.0039    1.9031    0.0027 H         1 <0>         0.0668
     31 H3         -0.5459    1.8868   -0.8726 H         1 <0>         0.0875
     32 H4         -0.5289    1.8773    0.9072 H         1 <0>         0.0685
     33 H5         -1.0205   -0.3814    0.0098 H         1 <0>         0.0726
     34 H6          0.5123   -0.3556   -0.8948 H         1 <0>         0.0712
     35 H7          1.9426   -0.4031    3.0659 H         1 <0>         0.1141
     36 H8          1.4868   -1.5683    4.3355 H         1 <0>         0.0854
     37 H9          4.0458   -1.5930    2.6695 H         1 <0>         0.0940
     38 H10         3.9124   -1.2248    4.4064 H         1 <0>         0.1050
     39 H11         3.0354   -3.5181    4.8124 H         1 <0>         0.1430
     40 H12         3.6058   -3.8832    1.8357 H         1 <0>         0.0947
     41 H13         3.1520   -5.1823    2.9657 H         1 <0>         0.1059
     42 H14         0.9964   -4.0933    3.4194 H         1 <0>         0.0879
     43 H15         1.1887   -4.2846    1.6577 H         1 <0>         0.1177
     44 H16         5.4173   -1.7957    5.0280 H         1 <0>         0.1362
     45 H17         5.0165   -3.1118    6.1565 H         1 <0>         0.1322
     46 H18         7.5746   -2.9023    4.5041 H         1 <0>         0.0917
     47 H19         7.4337   -2.5694    6.2478 H         1 <0>         0.1197
     48 H20         8.2843   -4.8790    5.7899 H         1 <0>         0.1024
     49 H21         6.7298   -4.8937    6.6597 H         1 <0>         0.0911
     50 H22         4.5974   -5.2878    5.3708 H         1 <0>         0.1421
     51 H23         4.6730   -5.6606    3.6325 H         1 <0>         0.1368
     52 H24         8.9300   -5.9623    3.7317 H         1 <0>         0.1476
     53 H25        11.1420   -9.6100    3.6960 H         1 <0>         0.1509
     54 H26         9.2703  -10.7827    4.7696 H         1 <0>         0.1517
     55 H27         7.3532  -11.6128    4.8064 H         1 <0>         0.0640
     56 H28         8.0292  -11.2143    6.4040 H         1 <0>         0.0642
     57 H29         6.2781  -11.4740    6.2182 H         1 <0>         0.1114
     58 H30         5.5444   -3.4483    3.2908 H         1 <0>         0.4207
@<TRIPOS>BOND
     1    1    2 1
     2    1   30 1
     3    1   31 1
     4    1   32 1
     5    2    3 1
     6    2   33 1
     7    2   34 1
     8    3    4 1
     9    4    5 2
    10    4    6 am
    11    6   11 1
    12    6    7 1
    13    7    8 1
    14    7   35 1
    15    7   36 1
    16    8    9 1
    17    8   37 1
    18    8   38 1
    19    9   10 1
    20    9   12 1
    21    9   39 1
    22   10   11 1
    23   10   40 1
    24   10   41 1
    25   11   42 1
    26   11   43 1
    27   12   18 1
    28   12   13 1
    29   12   58 1
    30   13   14 1
    31   13   44 1
    32   13   45 1
    33   14   15 1
    34   14   46 1
    35   14   47 1
    36   15   16 1
    37   15   48 1
    38   15   49 1
    39   16   17 1
    40   16   18 1
    41   16   19 1
    42   18   50 1
    43   18   51 1
    44   19   20 2
    45   19   21 1
    46   21   26 ar
    47   21   22 ar
    48   22   23 ar
    49   22   52 1
    50   23   24 ar
    51   23   29 1
    52   24   25 ar
    53   24   53 1
    54   25   26 ar
    55   25   54 1
    56   26   27 1
    57   27   28 1
    58   28   55 1
    59   28   56 1
    60   28   57 1
@<TRIPOS>MOLECULE
ZINC39928438
   54    57     0     0     0
SMALL
USER_CHARGES

@<TRIPOS>ATOM
      1 C1          0.3877    1.4582    0.1460 C.3       1 <0>        -0.1168
      2 C2          0.4143   -0.0472    0.0809 C.ar      1 <0>        -0.0992
      3 C3         -0.1925   -0.7029   -0.9745 C.ar      1 <0>        -0.0898
      4 C4         -0.1699   -2.0824   -1.0371 C.ar      1 <0>        -0.1442
      5 C5          0.4634   -2.8110   -0.0389 C.ar      1 <0>         0.1601
      6 C6          1.0723   -2.1494    1.0195 C.ar      1 <0>        -0.1562
      7 C7          1.0503   -0.7695    1.0738 C.ar      1 <0>        -0.0948
      8 N1          0.4877   -4.2087   -0.0991 N.am      1 <0>        -0.5482
      9 C8          0.9665   -4.9832    1.0486 C.3       1 <0>         0.1103
     10 C9         -0.2124   -5.3213    1.9633 C.3       1 <0>        -0.1703
     11 H1         -1.0061   -5.7345    1.3409 H         1 <0>         0.1724
     12 C10         0.2389   -6.4055    2.9216 C.2       1 <0>         0.1143
     13 C11         0.1550   -6.1378    4.2531 C.ar      1 <0>        -0.1860
     14 C12         0.5718   -7.1332    5.2437 C.ar      1 <0>         0.0559
     15 C13         0.4744   -6.8315    6.5606 C.ar      1 <0>        -0.2392
     16 C14        -0.0159   -5.5889    6.9892 C.ar      1 <0>         0.3344
     17 C15        -0.4222   -4.6136    6.1050 C.ar      1 <0>        -0.2742
     18 C16        -0.3576   -4.8378    4.7235 C.ar      1 <0>         0.3674
     19 N2         -0.7549   -3.8857    3.8758 N.am      1 <0>        -0.5970
     20 C17        -0.7189   -4.0293    2.5635 C.2       1 <0>         0.5021
     21 O1         -1.0930   -3.1251    1.8404 O.2       1 <0>        -0.3927
     22 O2         -0.0922   -5.3394    8.3183 O.3       1 <0>        -0.2682
     23 C18         0.3400   -6.3782    9.1993 C.3       1 <0>         0.0030
     24 C19         0.0706   -4.8426   -1.2130 C.2       1 <0>         0.5104
     25 O3         -0.2382   -4.2021   -2.1956 O.2       1 <0>        -0.4661
     26 C20        -0.0121   -6.3471   -1.2376 C.3       1 <0>         0.0629
     27 H2          0.7613   -6.7783   -0.6020 H         1 <0>         0.0943
     28 C21        -1.4137   -6.8164   -0.7727 C.3       1 <0>        -0.1499
     29 C22        -1.5039   -8.2045   -1.4632 C.3       1 <0>        -0.1517
     30 C23        -0.7337   -7.9662   -2.7798 C.3       1 <0>         0.0454
     31 O4          0.1208   -6.8318   -2.5833 O.3       1 <0>        -0.3481
     32 H3          1.2585    1.8597   -0.3722 H         1 <0>         0.0725
     33 H4         -0.5207    1.8265   -0.3308 H         1 <0>         0.0683
     34 H5          0.4060    1.7772    1.1882 H         1 <0>         0.0652
     35 H6         -0.6850   -0.1357   -1.7506 H         1 <0>         0.1279
     36 H7         -0.6447   -2.5940   -1.8614 H         1 <0>         0.1696
     37 H8          1.5654   -2.7133    1.7976 H         1 <0>         0.1073
     38 H9          1.5272   -0.2543    1.8945 H         1 <0>         0.1229
     39 H10         1.4297   -5.9051    0.6970 H         1 <0>         0.1252
     40 H11         1.6995   -4.3965    1.6024 H         1 <0>         0.1138
     41 H12         0.6124   -7.3529    2.5619 H         1 <0>         0.1999
     42 H13         0.9509   -8.0941    4.9286 H         1 <0>         0.1820
     43 H14         0.7800   -7.5619    7.2951 H         1 <0>         0.1728
     44 H15        -0.7934   -3.6709    6.4791 H         1 <0>         0.1766
     45 H16        -0.2645   -7.2699    9.0336 H         1 <0>         0.0826
     46 H17         1.3875   -6.6078    9.0040 H         1 <0>         0.0828
     47 H18         0.2266   -6.0491   10.2322 H         1 <0>         0.1298
     48 H19        -1.4555   -6.9137    0.3121 H         1 <0>         0.0818
     49 H20        -2.1928   -6.1458   -1.1354 H         1 <0>         0.0949
     50 H21        -1.0147   -8.9700   -0.8607 H         1 <0>         0.0853
     51 H22        -2.5415   -8.4714   -1.6636 H         1 <0>         0.0952
     52 H23        -0.1325   -8.8430   -3.0204 H         1 <0>         0.0829
     53 H24        -1.4367   -7.7653   -3.5882 H         1 <0>         0.0816
     54 H25        -1.0841   -3.0495    4.2409 H         1 <0>         0.4390
@<TRIPOS>BOND
     1    1    2 1
     2    1   32 1
     3    1   33 1
     4    1   34 1
     5    2    7 ar
     6    2    3 ar
     7    3    4 ar
     8    3   35 1
     9    4    5 ar
    10    4   36 1
    11    5    6 ar
    12    5    8 1
    13    6    7 ar
    14    6   37 1
    15    7   38 1
    16    8    9 1
    17    8   24 am
    18    9   10 1
    19    9   39 1
    20    9   40 1
    21   10   11 1
    22   10   20 1
    23   10   12 1
    24   12   13 2
    25   12   41 1
    26   13   18 ar
    27   13   14 ar
    28   14   15 ar
    29   14   42 1
    30   15   16 ar
    31   15   43 1
    32   16   17 ar
    33   16   22 1
    34   17   18 ar
    35   17   44 1
    36   18   19 2
    37   19   20 am
    38   19   54 1
    39   20   21 2
    40   22   23 1
    41   23   45 1
    42   23   46 1
    43   23   47 1
    44   24   25 2
    45   24   26 1
    46   26   27 1
    47   26   31 1
    48   26   28 1
    49   28   29 1
    50   28   48 1
    51   28   49 1
    52   29   30 1
    53   29   50 1
    54   29   51 1
    55   30   31 1
    56   30   52 1
    57   30   53 1
