@<TRIPOS>MOLECULE
3HMM-855
 39 42 0 0 0
SMALL
SF_CHARGES


@<TRIPOS>ATOM
1    C        10.3020   63.9450    5.4270  C.3        1 SUBUNIT     -0.0737
2    C        11.6880   64.0670    4.8800  C.2        1 SUBUNIT      0.2515
3    C        12.0500   63.4210    3.6830  C.2        1 SUBUNIT     -0.1174
4    C        13.3770   63.5740    3.2040  C.2        1 SUBUNIT     -0.0968
5    C        14.3050   64.3710    3.9220  C.2        1 SUBUNIT     -0.1214
6    C        13.8720   64.9950    5.1220  C.2        1 SUBUNIT      0.2284
7    N        12.5740   64.8380    5.5860  N.2        1 SUBUNIT     -0.5088
8    C        14.7430   65.8590    5.9240  C.2        1 SUBUNIT      0.5195
9    N        15.6620   66.5790    5.2540  N.2        1 SUBUNIT     -0.5394
10   C        16.4740   67.4160    5.9310  C.2        1 SUBUNIT      0.3845
11   C        17.3780   68.5460    3.8100  C.2        1 SUBUNIT      0.1138
12   C        16.2130   68.4070    2.9780  C.2        1 SUBUNIT     -0.1359
13   C        16.2750   68.8500    1.6470  C.2        1 SUBUNIT      0.1702
14   N        17.4040   69.4140    1.0990  N.2        1 SUBUNIT     -0.4987
15   C        18.5140   69.5380    1.9100  C.2        1 SUBUNIT      0.1702
16   C        18.5400   69.1230    3.2500  C.2        1 SUBUNIT     -0.1359
17   C        16.4010   67.5660    7.3360  C.2        1 SUBUNIT     -0.0668
18   C        17.2160   68.4350    8.1520  C.2        1 SUBUNIT     -0.1120
19   C        17.0370   68.4860    9.5570  C.2        1 SUBUNIT     -0.1065
20   C        16.0500   67.6780   10.1650  C.2        1 SUBUNIT     -0.1059
21   C        15.2370   66.8210    9.3670  C.2        1 SUBUNIT     -0.1290
22   C        15.3920   66.7510    7.9650  C.2        1 SUBUNIT      0.2609
23   N        14.5800   65.9150    7.2720  N.2        1 SUBUNIT     -0.5306
24   N        17.3950   68.1280    5.1530  N.pl3      1 SUBUNIT     -0.5215
25   H         9.5641   64.3306    4.7158  H          1 SUBUNIT      0.0544
26   H        10.1972   64.5090    6.3597  H          1 SUBUNIT      0.0544
27   H        10.0533   62.8993    5.6362  H          1 SUBUNIT      0.0544
28   H        11.3330   62.8250    3.1459  H          1 SUBUNIT      0.1166
29   H        13.6799   63.0848    2.2948  H          1 SUBUNIT      0.1172
30   H        15.3122   64.4993    3.5657  H          1 SUBUNIT      0.1176
31   H        15.3044   67.9730    3.3572  H          1 SUBUNIT      0.1169
32   H        15.4069   68.7485    1.0194  H          1 SUBUNIT      0.0894
33   H        19.4001   69.9762    1.4851  H          1 SUBUNIT      0.0894
34   H        19.4324   69.2438    3.8389  H          1 SUBUNIT      0.1169
35   H        17.9697   69.0541    7.6978  H          1 SUBUNIT      0.1151
36   H        17.6484   69.1357   10.1586  H          1 SUBUNIT      0.1139
37   H        15.9154   67.7129   11.2320  H          1 SUBUNIT      0.1127
38   H        14.4865   66.2114    9.8392  H          1 SUBUNIT      0.1114
39   H        18.2297   68.3903    5.6535  H          1 SUBUNIT      0.3215
@<TRIPOS>BOND
     1    1    2 1
     2    2    3 2
     3    2    7 1
     4    3    4 1
     5    4    5 2
     6    5    6 1
     7    6    7 2
     8    6    8 1
     9    8    9 2
    10    8   23 1
    11    9   10 1
    12   10   17 2
    13   10   24 1
    14   11   12 2
    15   11   16 1
    16   11   24 1
    17   12   13 1
    18   13   14 2
    19   14   15 1
    20   15   16 2
    21   17   18 1
    22   17   22 1
    23   18   19 2
    24   19   20 1
    25   20   21 2
    26   21   22 1
    27   22   23 2
    28    1   25 1
    29    1   26 1
    30    1   27 1
    31    3   28 1
    32    4   29 1
    33    5   30 1
    34   12   31 1
    35   13   32 1
    36   15   33 1
    37   16   34 1
    38   18   35 1
    39   19   36 1
    40   20   37 1
    41   21   38 1
    42   24   39 1
