@<TRIPOS>MOLECULE
CHEMBL133832
   46    49     0     0     0
SMALL
USER_CHARGES

@<TRIPOS>ATOM
      1 C1          0.0919    0.7758   -1.8125 C.ar      1 <0>        -0.1297
      2 C2          1.2122    1.6035   -1.7694 C.ar      1 <0>        -0.1206
      3 C3          2.4090    1.1399   -1.3158 C.ar      1 <0>        -0.0992
      4 C4          2.5203   -0.1925   -0.8832 C.ar      1 <0>        -0.0224
      5 C5          3.7408   -0.7033   -0.4085 C.ar      1 <0>        -0.1703
      6 C6          3.8158   -2.0011    0.0046 C.ar      1 <0>         0.1186
      7 C7          2.6868   -2.8362   -0.0387 C.ar      1 <0>         0.1311
      8 C8          1.4880   -2.3675   -0.4954 C.ar      1 <0>        -0.1005
      9 C9          1.3805   -1.0345   -0.9266 C.ar      1 <0>        -0.0649
     10 C10         0.1619   -0.5200   -1.4018 C.ar      1 <0>        -0.0993
     11 N1          2.7919   -4.1630    0.3905 N.am      1 <0>        -0.6312
     12 C11         1.9303   -5.0909   -0.0713 C.2       1 <0>         0.5686
     13 O1          1.1190   -4.7947   -0.9263 O.2       1 <0>        -0.5145
     14 C12         1.9722   -6.4717    0.4634 C.ar      1 <0>         0.1012
     15 C13         1.0829   -7.4274   -0.0221 C.ar      1 <0>        -0.1043
     16 C14         1.1345   -8.7163    0.4885 C.ar      1 <0>        -0.0008
     17 C15         2.0753   -9.0026    1.4677 C.ar      1 <0>        -0.1432
     18 C16         2.9280   -8.0018    1.9028 C.ar      1 <0>         0.1198
     19 N2          2.8607   -6.7892    1.3972 N.ar      1 <0>        -0.4488
     20 Cl1         0.0470   -9.9425   -0.0837 Cl        1 <0>        -0.0459
     21 O2          4.9970   -2.4924    0.4631 O.3       1 <0>        -0.2572
     22 C17         6.0560   -1.6471    0.5284 C.ar      1 <0>         0.0461
     23 C18         7.0324   -1.6837   -0.4599 C.ar      1 <0>        -0.1528
     24 C19         8.1138   -0.8283   -0.4040 C.ar      1 <0>        -0.0853
     25 C20         8.2329    0.0794    0.6476 C.ar      1 <0>        -0.1108
     26 C21         7.2437    0.1191    1.6522 C.ar      1 <0>        -0.0631
     27 C22         6.1568   -0.7438    1.5810 C.ar      1 <0>        -0.1305
     28 C23         7.3598    1.0768    2.7717 C.2       1 <0>         0.5609
     29 O3          7.9895    0.7717    3.7743 O.co2     1 <0>        -0.6869
     30 O4          6.8262    2.1741    2.6954 O.co2     1 <0>        -0.6969
     31 C24         9.3882    0.9936    0.7095 C.2       1 <0>         0.5135
     32 O5         10.2018    1.0136   -0.2035 O.co2     1 <0>        -0.7142
     33 O6          9.5328    1.7319    1.6738 O.co2     1 <0>        -0.6360
     34 H1         -0.8470    1.1697   -2.1729 H         1 <0>         0.1164
     35 H2          1.1298    2.6280   -2.1012 H         1 <0>         0.1195
     36 H3          3.2688    1.7928   -1.2888 H         1 <0>         0.1310
     37 H4          4.6155   -0.0710   -0.3713 H         1 <0>         0.1489
     38 H5          0.6268   -3.0185   -0.5249 H         1 <0>         0.1572
     39 H6         -0.7145   -1.1499   -1.4413 H         1 <0>         0.1215
     40 H7          3.4849   -4.4155    1.0206 H         1 <0>         0.4291
     41 H8          0.3633   -7.1687   -0.7848 H         1 <0>         0.1608
     42 H9          2.1417   -9.9959    1.8865 H         1 <0>         0.1524
     43 H10         3.6612   -8.2209    2.6649 H         1 <0>         0.1773
     44 H11         6.9446   -2.3857   -1.2759 H         1 <0>         0.1129
     45 H12         8.8689   -0.8622   -1.1754 H         1 <0>         0.1280
     46 H13         5.3935   -0.7161    2.3445 H         1 <0>         0.1147
@<TRIPOS>BOND
     1    1   10 ar
     2    1    2 ar
     3    1   34 1
     4    2    3 ar
     5    2   35 1
     6    3    4 ar
     7    3   36 1
     8    4    9 ar
     9    4    5 ar
    10    5    6 ar
    11    5   37 1
    12    6    7 ar
    13    6   21 1
    14    7    8 ar
    15    7   11 1
    16    8    9 ar
    17    8   38 1
    18    9   10 ar
    19   10   39 1
    20   11   12 am
    21   11   40 1
    22   12   13 2
    23   12   14 1
    24   14   19 ar
    25   14   15 ar
    26   15   16 ar
    27   15   41 1
    28   16   17 ar
    29   16   20 1
    30   17   18 ar
    31   17   42 1
    32   18   19 ar
    33   18   43 1
    34   21   22 1
    35   22   27 ar
    36   22   23 ar
    37   23   24 ar
    38   23   44 1
    39   24   25 ar
    40   24   45 1
    41   25   26 ar
    42   25   31 1
    43   26   27 ar
    44   26   28 1
    45   27   46 1
    46   28   29 2
    47   28   30 1
    48   31   32 2
    49   31   33 1
@<TRIPOS>MOLECULE
CHEMBL115395
   55    57     0     0     0
SMALL
USER_CHARGES

@<TRIPOS>ATOM
      1 C1         -0.1945    1.4918   -0.2289 C.3       1 <0>        -0.1101
      2 C2         -0.0440   -0.0075   -0.2558 C.2       1 <0>         0.2557
      3 C3         -1.0537   -0.7666   -0.7152 C.2       1 <0>        -0.3079
      4 C4         -0.9503   -2.2640   -0.7717 C.3       1 <0>         0.0773
      5 C5          0.1863   -2.7531    0.0804 C.2       1 <0>        -0.2146
      6 C6          1.1535   -1.9129    0.5123 C.2       1 <0>         0.0638
      7 N1          1.1193   -0.5759    0.1821 N.pl3     1 <0>        -0.4865
      8 C7          2.3298    0.2400    0.3044 C.3       1 <0>         0.1361
      9 C8          3.2113    0.0143   -0.8969 C.ar      1 <0>        -0.0891
     10 C9          4.2953   -0.8390   -0.8081 C.ar      1 <0>        -0.0403
     11 C10         5.1041   -1.0465   -1.9094 C.ar      1 <0>        -0.1059
     12 C11         4.8289   -0.4005   -3.1018 C.ar      1 <0>        -0.0211
     13 C12         3.7443    0.4530   -3.1914 C.ar      1 <0>        -0.1182
     14 C13         2.9322    0.6566   -2.0899 C.ar      1 <0>        -0.0177
     15 Cl1         1.5670    1.7230   -2.2031 Cl        1 <0>        -0.0545
     16 Cl2         5.8453   -0.6608   -4.4849 Cl        1 <0>        -0.0778
     17 C14         2.2647   -2.4369    1.3451 C.2       1 <0>         0.5794
     18 O1          3.1414   -3.1183    0.8353 O.co2     1 <0>        -0.6627
     19 O2          2.3026   -2.1870    2.5404 O.co2     1 <0>        -0.7034
     20 C15         0.2475   -4.1683    0.4511 C.2       1 <0>         0.5239
     21 O3          1.1053   -4.5600    1.2316 O.co2     1 <0>        -0.6553
     22 O4         -0.5593   -4.9597   -0.0195 O.co2     1 <0>        -0.7053
     23 C16        -0.7201   -2.6915   -2.1984 C.ar      1 <0>        -0.0126
     24 C17         0.4010   -2.2543   -2.8788 C.ar      1 <0>        -0.0903
     25 C18         0.6123   -2.6464   -4.1872 C.ar      1 <0>        -0.1282
     26 C19        -0.2974   -3.4761   -4.8164 C.ar      1 <0>        -0.1321
     27 C20        -1.4185   -3.9138   -4.1372 C.ar      1 <0>        -0.1290
     28 C21        -1.6276   -3.5262   -2.8254 C.ar      1 <0>         0.0028
     29 Cl3        -3.0323   -4.0810   -1.9694 Cl        1 <0>        -0.0623
     30 C22        -2.2427   -0.1402   -1.1556 C.2       1 <0>         0.5272
     31 O5         -2.3424    1.0719   -1.1159 O.2       1 <0>        -0.5586
     32 O6         -3.2666   -0.8866   -1.6199 O.3       1 <0>        -0.3304
     33 C23        -4.4371   -0.1876   -2.0481 C.3       1 <0>         0.0816
     34 C24        -5.1268   -0.9809   -3.1597 C.3       1 <0>        -0.1449
     35 C25        -5.3956   -0.0264   -0.8665 C.3       1 <0>        -0.1668
     36 H1          0.7320    1.9436    0.1257 H         1 <0>         0.0593
     37 H2         -0.4135    1.8530   -1.2337 H         1 <0>         0.0912
     38 H3         -1.0106    1.7631    0.4407 H         1 <0>         0.0865
     39 H4         -1.8818   -2.7016   -0.4128 H         1 <0>         0.0891
     40 H5          2.0541    1.2931    0.3600 H         1 <0>         0.0987
     41 H6          2.8687   -0.0427    1.2087 H         1 <0>         0.1076
     42 H7          4.5104   -1.3434    0.1223 H         1 <0>         0.1620
     43 H8          5.9512   -1.7127   -1.8392 H         1 <0>         0.1383
     44 H9          3.5292    0.9575   -4.1218 H         1 <0>         0.1367
     45 H10         1.1118   -1.6060   -2.3880 H         1 <0>         0.1160
     46 H11         1.4881   -2.3043   -4.7185 H         1 <0>         0.1114
     47 H12        -0.1319   -3.7818   -5.8389 H         1 <0>         0.1147
     48 H13        -2.1292   -4.5616   -4.6288 H         1 <0>         0.1182
     49 H14        -4.1557    0.7959   -2.4244 H         1 <0>         0.0734
     50 H15        -5.4082   -1.9644   -2.7834 H         1 <0>         0.0664
     51 H16        -6.0197   -0.4477   -3.4863 H         1 <0>         0.0642
     52 H17        -4.4439   -1.0958   -4.0015 H         1 <0>         0.0609
     53 H18        -6.2884    0.5068   -1.1931 H         1 <0>         0.0607
     54 H19        -5.6770   -1.0099   -0.4901 H         1 <0>         0.0630
     55 H20        -4.9042    0.5388   -0.0745 H         1 <0>         0.0591
@<TRIPOS>BOND
     1    1    2 1
     2    1   36 1
     3    1   37 1
     4    1   38 1
     5    2    7 1
     6    2    3 2
     7    3    4 1
     8    3   30 1
     9    4    5 1
    10    4   23 1
    11    4   39 1
    12    5    6 2
    13    5   20 1
    14    6    7 1
    15    6   17 1
    16    7    8 1
    17    8    9 1
    18    8   40 1
    19    8   41 1
    20    9   14 ar
    21    9   10 ar
    22   10   11 ar
    23   10   42 1
    24   11   12 ar
    25   11   43 1
    26   12   13 ar
    27   12   16 1
    28   13   14 ar
    29   13   44 1
    30   14   15 1
    31   17   18 2
    32   17   19 1
    33   20   21 2
    34   20   22 1
    35   23   28 ar
    36   23   24 ar
    37   24   25 ar
    38   24   45 1
    39   25   26 ar
    40   25   46 1
    41   26   27 ar
    42   26   47 1
    43   27   28 ar
    44   27   48 1
    45   28   29 1
    46   30   31 2
    47   30   32 1
    48   32   33 1
    49   33   34 1
    50   33   35 1
    51   33   49 1
    52   34   50 1
    53   34   51 1
    54   34   52 1
    55   35   53 1
    56   35   54 1
    57   35   55 1
@<TRIPOS>MOLECULE
CHEMBL115395__1
   55    57     0     0     0
SMALL
USER_CHARGES

@<TRIPOS>ATOM
      1 C1         -0.0077    1.1721   -0.0843 C.3       1 <0>        -0.1107
      2 C2          0.1795   -0.3111    0.1057 C.2       1 <0>         0.2470
      3 C3         -0.8818   -1.0802    0.4039 C.2       1 <0>        -0.3069
      4 C4         -0.7471   -2.5616    0.6116 C.3       1 <0>         0.0760
      5 C5          0.5614   -3.0602    0.0671 C.2       1 <0>        -0.2202
      6 C6          1.5729   -2.2103   -0.2205 C.2       1 <0>         0.0751
      7 N1          1.4251   -0.8563   -0.0333 N.pl3     1 <0>        -0.4854
      8 C7          2.6093    0.0044    0.0222 C.3       1 <0>         0.1421
      9 C8          2.7383    0.5930    1.4035 C.ar      1 <0>        -0.0921
     10 C9          2.4329    1.9239    1.6189 C.ar      1 <0>        -0.0843
     11 C10         2.5510    2.4643    2.8854 C.ar      1 <0>        -0.1216
     12 C11         2.9746    1.6732    3.9388 C.ar      1 <0>        -0.0217
     13 C12         3.2798    0.3414    3.7240 C.ar      1 <0>        -0.1144
     14 C13         3.1568   -0.2002    2.4568 C.ar      1 <0>        -0.0349
     15 Cl1         3.5340   -1.8732    2.1874 Cl        1 <0>         0.0479
     16 Cl2         3.1234    2.3523    5.5295 Cl        1 <0>        -0.0792
     17 C14         2.8534   -2.7434   -0.7485 C.2       1 <0>         0.5808
     18 O1          3.0617   -2.7514   -1.9524 O.co2     1 <0>        -0.6996
     19 O2          3.6993   -3.1742    0.0207 O.co2     1 <0>        -0.6599
     20 C15         0.7451   -4.4955   -0.1562 C.2       1 <0>         0.5235
     21 O3          1.8369   -4.9260   -0.5046 O.co2     1 <0>        -0.6557
     22 O4         -0.1931   -5.2652    0.0055 O.co2     1 <0>        -0.7071
     23 C16        -0.8179   -2.8640    2.0863 C.ar      1 <0>        -0.0158
     24 C17         0.1086   -2.3114    2.9506 C.ar      1 <0>        -0.0934
     25 C18         0.0437   -2.5886    4.3032 C.ar      1 <0>        -0.1291
     26 C19        -0.9477   -3.4188    4.7925 C.ar      1 <0>        -0.1321
     27 C20        -1.8745   -3.9718    3.9294 C.ar      1 <0>        -0.1289
     28 C21        -1.8135   -3.6901    2.5760 C.ar      1 <0>        -0.0023
     29 Cl3        -2.9814   -4.3793    1.4921 Cl        1 <0>        -0.0604
     30 C22        -2.1564   -0.4797    0.5255 C.2       1 <0>         0.5269
     31 O5         -2.2823    0.7194    0.3607 O.2       1 <0>        -0.5587
     32 O6         -3.2331   -1.2364    0.8244 O.3       1 <0>        -0.3300
     33 C23        -4.4892   -0.5637    0.9318 C.3       1 <0>         0.0816
     34 C24        -5.6151   -1.5186    0.5298 C.3       1 <0>        -0.1464
     35 C25        -4.7006   -0.1054    2.3761 C.3       1 <0>        -0.1648
     36 H1          0.9490    1.6298   -0.3360 H         1 <0>         0.0542
     37 H2         -0.7184    1.3481   -0.8918 H         1 <0>         0.0916
     38 H3         -0.3892    1.6112    0.8375 H         1 <0>         0.0888
     39 H4         -1.5650   -3.0711    0.1021 H         1 <0>         0.0917
     40 H5          3.4976   -0.5845   -0.2062 H         1 <0>         0.1208
     41 H6          2.5087    0.8082   -0.7072 H         1 <0>         0.0827
     42 H7          2.1023    2.5417    0.7971 H         1 <0>         0.1396
     43 H8          2.3129    3.5043    3.0530 H         1 <0>         0.1328
     44 H9          3.6105   -0.2764    4.5458 H         1 <0>         0.1386
     45 H10         0.8835   -1.6631    2.5689 H         1 <0>         0.1219
     46 H11         0.7680   -2.1569    4.9780 H         1 <0>         0.1114
     47 H12        -0.9977   -3.6353    5.8494 H         1 <0>         0.1148
     48 H13        -2.6488   -4.6205    4.3117 H         1 <0>         0.1183
     49 H14        -4.4948    0.3032    0.2710 H         1 <0>         0.0739
     50 H15        -5.6095   -2.3854    1.1905 H         1 <0>         0.0664
     51 H16        -6.5733   -1.0054    0.6116 H         1 <0>         0.0647
     52 H17        -5.4645   -1.8451   -0.4992 H         1 <0>         0.0617
     53 H18        -5.6587    0.4077    2.4580 H         1 <0>         0.0603
     54 H19        -4.6950   -0.9723    3.0369 H         1 <0>         0.0626
     55 H20        -3.8985    0.5749    2.6625 H         1 <0>         0.0577
@<TRIPOS>BOND
     1    1    2 1
     2    1   36 1
     3    1   37 1
     4    1   38 1
     5    2    7 1
     6    2    3 2
     7    3    4 1
     8    3   30 1
     9    4    5 1
    10    4   23 1
    11    4   39 1
    12    5    6 2
    13    5   20 1
    14    6    7 1
    15    6   17 1
    16    7    8 1
    17    8    9 1
    18    8   40 1
    19    8   41 1
    20    9   14 ar
    21    9   10 ar
    22   10   11 ar
    23   10   42 1
    24   11   12 ar
    25   11   43 1
    26   12   13 ar
    27   12   16 1
    28   13   14 ar
    29   13   44 1
    30   14   15 1
    31   17   18 2
    32   17   19 1
    33   20   21 2
    34   20   22 1
    35   23   28 ar
    36   23   24 ar
    37   24   25 ar
    38   24   45 1
    39   25   26 ar
    40   25   46 1
    41   26   27 ar
    42   26   47 1
    43   27   28 ar
    44   27   48 1
    45   28   29 1
    46   30   31 2
    47   30   32 1
    48   32   33 1
    49   33   34 1
    50   33   35 1
    51   33   49 1
    52   34   50 1
    53   34   51 1
    54   34   52 1
    55   35   53 1
    56   35   54 1
    57   35   55 1
@<TRIPOS>MOLECULE
CHEMBL423509
   57    59     0     0     0
SMALL
USER_CHARGES

@<TRIPOS>ATOM
      1 C1          0.1865    1.6357   -0.0418 C.3       1 <0>        -0.1165
      2 C2          0.0446    0.1365    0.0150 C.2       1 <0>         0.2431
      3 C3         -1.1819   -0.4134    0.0206 C.2       1 <0>        -0.3015
      4 C4         -1.3772   -1.9019    0.0666 C.3       1 <0>         0.0760
      5 C5         -0.1134   -2.5932    0.4932 C.2       1 <0>        -0.2142
      6 C6          1.0789   -1.9559    0.4700 C.2       1 <0>         0.0625
      7 N1          1.1650   -0.6454    0.0544 N.pl3     1 <0>        -0.4921
      8 C7          2.4599   -0.0862   -0.3416 C.3       1 <0>         0.1428
      9 C8          2.6085   -0.1746   -1.8387 C.ar      1 <0>        -0.0994
     10 C9          3.1691   -1.3007   -2.4124 C.ar      1 <0>        -0.0274
     11 C10         3.3053   -1.3818   -3.7854 C.ar      1 <0>        -0.1207
     12 C11         2.8807   -0.3370   -4.5852 C.ar      1 <0>        -0.0569
     13 C12         2.3196    0.7884   -4.0117 C.ar      1 <0>        -0.0628
     14 C13         2.1793    0.8677   -2.6385 C.ar      1 <0>        -0.0443
     15 N2          1.8654    1.9072   -4.8678 N.pl3     1 <0>         0.0441
     16 O1          1.9854    1.8366   -6.0688 O.2       1 <0>        -0.1764
     17 O2          1.3746    2.8916   -4.3662 O.3       1 <0>        -0.1681
     18 C14         2.3061   -2.6767    0.8909 C.2       1 <0>         0.5827
     19 O3          2.9584   -3.3035    0.0696 O.co2     1 <0>        -0.6901
     20 O4          2.6640   -2.6433    2.0586 O.co2     1 <0>        -0.6794
     21 C15        -0.1741   -3.9850    0.9437 C.2       1 <0>         0.5231
     22 O5          0.8261   -4.5258    1.3973 O.co2     1 <0>        -0.6558
     23 O6         -1.2252   -4.6080    0.8667 O.co2     1 <0>        -0.7024
     24 C16        -1.7730   -2.3926   -1.3022 C.ar      1 <0>        -0.0130
     25 C17        -0.9252   -2.2010   -2.3771 C.ar      1 <0>        -0.0946
     26 C18        -1.2881   -2.6510   -3.6326 C.ar      1 <0>        -0.1294
     27 C19        -2.4991   -3.2929   -3.8142 C.ar      1 <0>        -0.1305
     28 C20        -3.3475   -3.4850   -2.7404 C.ar      1 <0>        -0.1271
     29 C21        -2.9823   -3.0398   -1.4821 C.ar      1 <0>         0.0036
     30 Cl1        -4.0445   -3.2866   -0.1315 Cl        1 <0>        -0.0597
     31 C22        -2.3163    0.4304   -0.0172 C.2       1 <0>         0.5262
     32 O7         -2.1750    1.6384   -0.0543 O.2       1 <0>        -0.5538
     33 O8         -3.5553   -0.1043   -0.0122 O.3       1 <0>        -0.3305
     34 C23        -4.6553    0.8071   -0.0518 C.3       1 <0>         0.0814
     35 C24        -5.0339    1.0864   -1.5077 C.3       1 <0>        -0.1654
     36 C25        -5.8522    0.1939    0.6777 C.3       1 <0>        -0.1463
     37 H1          1.2412    1.9035    0.0217 H         1 <0>         0.0559
     38 H2         -0.2261    2.0043   -0.9810 H         1 <0>         0.0900
     39 H3         -0.3530    2.0836    0.7927 H         1 <0>         0.0982
     40 H4         -2.1716   -2.1376    0.7748 H         1 <0>         0.0913
     41 H5          2.5150    0.9574   -0.0321 H         1 <0>         0.0932
     42 H6          3.2608   -0.6499    0.1369 H         1 <0>         0.1152
     43 H7          3.5007   -2.1169   -1.7877 H         1 <0>         0.1753
     44 H8          3.7438   -2.2612   -4.2336 H         1 <0>         0.1473
     45 H9          2.9879   -0.4000   -5.6580 H         1 <0>         0.1467
     46 H10         1.7374    1.7454   -2.1906 H         1 <0>         0.1486
     47 H11         0.0207   -1.6993   -2.2359 H         1 <0>         0.1134
     48 H12        -0.6256   -2.5008   -4.4722 H         1 <0>         0.1106
     49 H13        -2.7823   -3.6440   -4.7955 H         1 <0>         0.1161
     50 H14        -4.2936   -3.9862   -2.8824 H         1 <0>         0.1198
     51 H15        -4.3719    1.7401    0.4353 H         1 <0>         0.0749
     52 H16        -5.3173    0.1535   -1.9949 H         1 <0>         0.0624
     53 H17        -5.8729    1.7816   -1.5380 H         1 <0>         0.0616
     54 H18        -4.1812    1.5233   -2.0275 H         1 <0>         0.0583
     55 H19        -5.5825   -0.0051    1.7149 H         1 <0>         0.0617
     56 H20        -6.6912    0.8890    0.6475 H         1 <0>         0.0657
     57 H21        -6.1356   -0.7391    0.1906 H         1 <0>         0.0663
@<TRIPOS>BOND
     1    1    2 1
     2    1   37 1
     3    1   38 1
     4    1   39 1
     5    2    7 1
     6    2    3 2
     7    3    4 1
     8    3   31 1
     9    4    5 1
    10    4   24 1
    11    4   40 1
    12    5    6 2
    13    5   21 1
    14    6    7 1
    15    6   18 1
    16    7    8 1
    17    8    9 1
    18    8   41 1
    19    8   42 1
    20    9   14 ar
    21    9   10 ar
    22   10   11 ar
    23   10   43 1
    24   11   12 ar
    25   11   44 1
    26   12   13 ar
    27   12   45 1
    28   13   14 ar
    29   13   15 1
    30   14   46 1
    31   15   16 2
    32   15   17 1
    33   18   19 2
    34   18   20 1
    35   21   22 2
    36   21   23 1
    37   24   29 ar
    38   24   25 ar
    39   25   26 ar
    40   25   47 1
    41   26   27 ar
    42   26   48 1
    43   27   28 ar
    44   27   49 1
    45   28   29 ar
    46   28   50 1
    47   29   30 1
    48   31   32 2
    49   31   33 1
    50   33   34 1
    51   34   35 1
    52   34   36 1
    53   34   51 1
    54   35   52 1
    55   35   53 1
    56   35   54 1
    57   36   55 1
    58   36   56 1
    59   36   57 1
@<TRIPOS>MOLECULE
CHEMBL423509__1
   57    59     0     0     0
SMALL
USER_CHARGES

@<TRIPOS>ATOM
      1 C1          0.0568    1.4984    0.0608 C.3       1 <0>        -0.1145
      2 C2          0.0400   -0.0080    0.0216 C.2       1 <0>         0.2421
      3 C3         -1.1296   -0.6608    0.1344 C.2       1 <0>        -0.3027
      4 C4         -1.1995   -2.1610    0.1102 C.3       1 <0>         0.0745
      5 C5          0.0729   -2.7459   -0.4340 C.2       1 <0>        -0.2135
      6 C6          1.2026   -2.0087   -0.5261 C.2       1 <0>         0.0606
      7 N1          1.2135   -0.6912   -0.1336 N.pl3     1 <0>        -0.4883
      8 C7          2.4894   -0.0187    0.1236 C.3       1 <0>         0.1411
      9 C8          2.7944   -0.0673    1.5986 C.ar      1 <0>        -0.1003
     10 C9          2.3517    0.9449    2.4298 C.ar      1 <0>        -0.0599
     11 C10         2.6315    0.9004    3.7826 C.ar      1 <0>        -0.1293
     12 C11         3.3536   -0.1567    4.3047 C.ar      1 <0>        -0.0598
     13 C12         3.7953   -1.1691    3.4740 C.ar      1 <0>        -0.0519
     14 C13         3.5118   -1.1267    2.1214 C.ar      1 <0>        -0.0178
     15 N2          4.5689   -2.3006    4.0329 N.pl3     1 <0>         0.0346
     16 O1          4.8143   -2.3392    5.2161 O.2       1 <0>        -0.1868
     17 O2          4.9553   -3.1862    3.3062 O.3       1 <0>        -0.1306
     18 C14         2.4417   -2.6261   -1.0611 C.2       1 <0>         0.5778
     19 O3          2.7233   -2.5047   -2.2438 O.co2     1 <0>        -0.6933
     20 O4          3.1802   -3.2557   -0.3188 O.co2     1 <0>        -0.6685
     21 C15         0.0900   -4.1426   -0.8730 C.2       1 <0>         0.5220
     22 O5          1.1412   -4.6598   -1.2280 O.co2     1 <0>        -0.6519
     23 O6         -0.9470   -4.7931   -0.8851 O.co2     1 <0>        -0.7047
     24 C16        -1.4195   -2.6698    1.5115 C.ar      1 <0>        -0.0163
     25 C17        -0.4987   -2.3858    2.5026 C.ar      1 <0>        -0.0934
     26 C18        -0.7004   -2.8524    3.7880 C.ar      1 <0>        -0.1286
     27 C19        -1.8232   -3.6034    4.0832 C.ar      1 <0>        -0.1301
     28 C20        -2.7444   -3.8880    3.0931 C.ar      1 <0>        -0.1263
     29 C21        -2.5459   -3.4163    1.8075 C.ar      1 <0>        -0.0010
     30 Cl1        -3.7060   -3.7678    0.5648 Cl        1 <0>        -0.0576
     31 C22        -2.3236    0.0831    0.2799 C.2       1 <0>         0.5278
     32 O7         -2.2840    1.2991    0.3018 O.2       1 <0>        -0.5581
     33 O8         -3.5068   -0.5556    0.3944 O.3       1 <0>        -0.3297
     34 C23        -4.6723    0.2586    0.5383 C.3       1 <0>         0.0818
     35 C24        -5.2437    0.5800   -0.8441 C.3       1 <0>        -0.1672
     36 C25        -5.7207   -0.4926    1.3615 C.3       1 <0>        -0.1454
     37 H1          1.0878    1.8511    0.0334 H         1 <0>         0.0554
     38 H2         -0.4843    1.8903   -0.8005 H         1 <0>         0.0914
     39 H3         -0.4210    1.8434    0.9777 H         1 <0>         0.0942
     40 H4         -2.0343   -2.4710   -0.5184 H         1 <0>         0.0943
     41 H5          3.2832   -0.5221   -0.4283 H         1 <0>         0.1138
     42 H6          2.4243    1.0201   -0.1999 H         1 <0>         0.0956
     43 H7          1.7877    1.7707    2.0219 H         1 <0>         0.1390
     44 H8          2.2863    1.6915    4.4317 H         1 <0>         0.1417
     45 H9          3.5728   -0.1912    5.3617 H         1 <0>         0.1462
     46 H10         3.8538   -1.9197    1.4729 H         1 <0>         0.1825
     47 H11         0.3786   -1.7995    2.2726 H         1 <0>         0.1132
     48 H12         0.0194   -2.6306    4.5619 H         1 <0>         0.1100
     49 H13        -1.9800   -3.9681    5.0876 H         1 <0>         0.1167
     50 H14        -3.6212   -4.4749    3.3238 H         1 <0>         0.1205
     51 H15        -4.4073    1.1857    1.0466 H         1 <0>         0.0738
     52 H16        -5.5087   -0.3471   -1.3523 H         1 <0>         0.0636
     53 H17        -6.1328    1.2011   -0.7343 H         1 <0>         0.0615
     54 H18        -4.4968    1.1152   -1.4305 H         1 <0>         0.0592
     55 H19        -5.3136   -0.7216    2.3463 H         1 <0>         0.0608
     56 H20        -6.6097    0.1285    1.4713 H         1 <0>         0.0650
     57 H21        -5.9857   -1.4197    0.8533 H         1 <0>         0.0668
@<TRIPOS>BOND
     1    1    2 1
     2    1   37 1
     3    1   38 1
     4    1   39 1
     5    2    7 1
     6    2    3 2
     7    3    4 1
     8    3   31 1
     9    4    5 1
    10    4   24 1
    11    4   40 1
    12    5    6 2
    13    5   21 1
    14    6    7 1
    15    6   18 1
    16    7    8 1
    17    8    9 1
    18    8   41 1
    19    8   42 1
    20    9   14 ar
    21    9   10 ar
    22   10   11 ar
    23   10   43 1
    24   11   12 ar
    25   11   44 1
    26   12   13 ar
    27   12   45 1
    28   13   14 ar
    29   13   15 1
    30   14   46 1
    31   15   16 2
    32   15   17 1
    33   18   19 2
    34   18   20 1
    35   21   22 2
    36   21   23 1
    37   24   29 ar
    38   24   25 ar
    39   25   26 ar
    40   25   47 1
    41   26   27 ar
    42   26   48 1
    43   27   28 ar
    44   27   49 1
    45   28   29 ar
    46   28   50 1
    47   29   30 1
    48   31   32 2
    49   31   33 1
    50   33   34 1
    51   34   35 1
    52   34   36 1
    53   34   51 1
    54   35   52 1
    55   35   53 1
    56   35   54 1
    57   36   55 1
    58   36   56 1
    59   36   57 1
@<TRIPOS>MOLECULE
CHEMBL440528
   50    53     0     0     0
SMALL
USER_CHARGES

@<TRIPOS>ATOM
      1 C1         -0.4475    1.5232   -1.2874 C.3       1 <0>         0.0243
      2 O1         -0.4566    0.1015   -1.4318 O.3       1 <0>        -0.3082
      3 C2         -1.5022   -0.5671   -0.8820 C.ar      1 <0>         0.1608
      4 C3         -2.5152    0.1171   -0.2158 C.ar      1 <0>        -0.2435
      5 C4         -3.5660   -0.5957    0.3327 C.ar      1 <0>         0.1413
      6 N1         -3.6197   -1.9070    0.2335 N.ar      1 <0>        -0.4758
      7 C5         -2.6759   -2.6004   -0.3928 C.ar      1 <0>         0.1213
      8 C6         -1.5907   -1.9534   -0.9755 C.ar      1 <0>        -0.1421
      9 C7         -2.7824   -4.0756   -0.4766 C.2       1 <0>         0.5707
     10 O2         -1.9218   -4.7154   -1.0484 O.2       1 <0>        -0.5172
     11 N2         -3.8337   -4.7081    0.0812 N.am      1 <0>        -0.6348
     12 C8         -3.9775   -6.0911   -0.0686 C.ar      1 <0>         0.1277
     13 C9         -2.8667   -6.8856   -0.1017 C.ar      1 <0>        -0.0871
     14 C10        -3.0093   -8.2751   -0.2516 C.ar      1 <0>        -0.0673
     15 C11        -1.8877   -9.1215   -0.2891 C.ar      1 <0>        -0.0992
     16 C12        -2.0610  -10.4637   -0.4351 C.ar      1 <0>        -0.1299
     17 C13        -3.3362  -11.0144   -0.5485 C.ar      1 <0>        -0.1201
     18 C14        -4.4454  -10.2260   -0.5165 C.ar      1 <0>        -0.0985
     19 C15        -4.3067   -8.8355   -0.3669 C.ar      1 <0>        -0.0198
     20 C16        -5.4307   -7.9928   -0.3294 C.ar      1 <0>        -0.1718
     21 C17        -5.2626   -6.6474   -0.1774 C.ar      1 <0>         0.1203
     22 O3         -6.3514   -5.8352   -0.1358 O.3       1 <0>        -0.2543
     23 C18        -7.5780   -6.4145   -0.1263 C.ar      1 <0>         0.0495
     24 C19        -8.4255   -6.2580   -1.2166 C.ar      1 <0>        -0.1521
     25 C20        -9.6753   -6.8430   -1.2182 C.ar      1 <0>        -0.0835
     26 C21       -10.0956   -7.5960   -0.1226 C.ar      1 <0>        -0.1144
     27 C22        -9.2379   -7.7568    0.9855 C.ar      1 <0>        -0.0609
     28 C23        -7.9796   -7.1672    0.9719 C.ar      1 <0>        -0.1394
     29 C24        -9.6730   -8.5524    2.1524 C.2       1 <0>         0.5604
     30 O4        -10.3326   -8.0280    3.0382 O.co2     1 <0>        -0.6847
     31 O5         -9.3733   -9.7350    2.2320 O.co2     1 <0>        -0.6991
     32 C25       -11.4310   -8.2211   -0.1221 C.2       1 <0>         0.5137
     33 O6        -12.1352   -8.1599   -1.1203 O.co2     1 <0>        -0.7150
     34 O7        -11.8346   -8.8007    0.8765 O.co2     1 <0>        -0.6364
     35 H1          0.4399    1.9318   -1.7708 H         1 <0>         0.1041
     36 H2         -1.3400    1.9414   -1.7530 H         1 <0>         0.0598
     37 H3         -0.4356    1.7808   -0.2284 H         1 <0>         0.0594
     38 H4         -2.4808    1.1930   -0.1278 H         1 <0>         0.1442
     39 H5         -4.3537   -0.0686    0.8503 H         1 <0>         0.1689
     40 H6         -0.8264   -2.5183   -1.4884 H         1 <0>         0.1569
     41 H7         -4.4905   -4.2041    0.5866 H         1 <0>         0.4275
     42 H8         -1.8835   -6.4475   -0.0134 H         1 <0>         0.1494
     43 H9         -0.8934   -8.7090   -0.2028 H         1 <0>         0.1214
     44 H10        -1.1974  -11.1115   -0.4639 H         1 <0>         0.1162
     45 H11        -3.4459  -12.0825   -0.6639 H         1 <0>         0.1196
     46 H12        -5.4272  -10.6669   -0.6059 H         1 <0>         0.1319
     47 H13        -6.4235   -8.4088   -0.4163 H         1 <0>         0.1499
     48 H14        -8.1044   -5.6750   -2.0671 H         1 <0>         0.1135
     49 H15       -10.3287   -6.7172   -2.0689 H         1 <0>         0.1281
     50 H16        -7.3161   -7.2895    1.8153 H         1 <0>         0.1142
@<TRIPOS>BOND
     1    1    2 1
     2    1   35 1
     3    1   36 1
     4    1   37 1
     5    2    3 1
     6    3    8 ar
     7    3    4 ar
     8    4    5 ar
     9    4   38 1
    10    5    6 ar
    11    5   39 1
    12    6    7 ar
    13    7    8 ar
    14    7    9 1
    15    8   40 1
    16    9   10 2
    17    9   11 am
    18   11   12 1
    19   11   41 1
    20   12   21 ar
    21   12   13 ar
    22   13   14 ar
    23   13   42 1
    24   14   19 ar
    25   14   15 ar
    26   15   16 ar
    27   15   43 1
    28   16   17 ar
    29   16   44 1
    30   17   18 ar
    31   17   45 1
    32   18   19 ar
    33   18   46 1
    34   19   20 ar
    35   20   21 ar
    36   20   47 1
    37   21   22 1
    38   22   23 1
    39   23   28 ar
    40   23   24 ar
    41   24   25 ar
    42   24   48 1
    43   25   26 ar
    44   25   49 1
    45   26   27 ar
    46   26   32 1
    47   27   28 ar
    48   27   29 1
    49   28   50 1
    50   29   30 2
    51   29   31 1
    52   32   33 2
    53   32   34 1
@<TRIPOS>MOLECULE
CHEMBL113762
   55    57     0     0     0
SMALL
USER_CHARGES

@<TRIPOS>ATOM
      1 C1          0.1870    1.6359   -0.0411 C.3       1 <0>        -0.1140
      2 C2          0.0448    0.1367    0.0157 C.2       1 <0>         0.2481
      3 C3         -1.1819   -0.4129    0.0215 C.2       1 <0>        -0.3069
      4 C4         -1.3776   -1.9013    0.0675 C.3       1 <0>         0.0780
      5 C5         -0.1138   -2.5929    0.4937 C.2       1 <0>        -0.2176
      6 C6          1.0786   -1.9560    0.4702 C.2       1 <0>         0.0667
      7 N1          1.1650   -0.6454    0.0548 N.pl3     1 <0>        -0.4886
      8 C7          2.4599   -0.0866   -0.3415 C.3       1 <0>         0.1424
      9 C8          2.6082   -0.1749   -1.8386 C.ar      1 <0>        -0.0889
     10 C9          3.1684   -1.3012   -2.4124 C.ar      1 <0>        -0.0746
     11 C10         3.3047   -1.3830   -3.7855 C.ar      1 <0>        -0.1121
     12 C11         2.8813   -0.3383   -4.5858 C.ar      1 <0>        -0.1118
     13 C12         2.3208    0.7888   -4.0122 C.ar      1 <0>        -0.0442
     14 C13         2.1790    0.8674   -2.6380 C.ar      1 <0>        -0.0985
     15 Cl1         1.7888    2.1010   -5.0166 Cl        1 <0>        -0.0903
     16 C14         2.3057   -2.6771    0.8908 C.2       1 <0>         0.5822
     17 O1          2.9577   -3.3040    0.0694 O.co2     1 <0>        -0.6877
     18 O2          2.6639   -2.6439    2.0584 O.co2     1 <0>        -0.6825
     19 C15        -0.1748   -3.9848    0.9441 C.2       1 <0>         0.5234
     20 O3          0.8255   -4.5258    1.3974 O.co2     1 <0>        -0.6568
     21 O4         -1.2260   -4.6075    0.8674 O.co2     1 <0>        -0.7039
     22 C16        -1.7738   -2.3918   -1.3013 C.ar      1 <0>        -0.0137
     23 C17        -0.9262   -2.2004   -2.3764 C.ar      1 <0>        -0.0918
     24 C18        -1.2895   -2.6502   -3.6319 C.ar      1 <0>        -0.1277
     25 C19        -2.5007   -3.2918   -3.8132 C.ar      1 <0>        -0.1324
     26 C20        -3.3489   -3.4838   -2.7392 C.ar      1 <0>        -0.1289
     27 C21        -2.9832   -3.0388   -1.4810 C.ar      1 <0>         0.0028
     28 Cl2        -4.0453   -3.2854   -0.1301 Cl        1 <0>        -0.0621
     29 C22        -2.3161    0.4312   -0.0160 C.2       1 <0>         0.5271
     30 O5         -2.1745    1.6392   -0.0530 O.2       1 <0>        -0.5579
     31 O6         -3.5553   -0.1032   -0.0107 O.3       1 <0>        -0.3304
     32 C23        -4.6550    0.8084   -0.0501 C.3       1 <0>         0.0815
     33 C24        -5.8383    0.1497   -0.7620 C.3       1 <0>        -0.1450
     34 C25        -5.0611    1.1796    1.3776 C.3       1 <0>        -0.1669
     35 H1          1.2417    1.9035    0.0223 H         1 <0>         0.0559
     36 H2         -0.2257    2.0047   -0.9802 H         1 <0>         0.0880
     37 H3         -0.3523    2.0839    0.7935 H         1 <0>         0.0954
     38 H4         -2.1718   -2.1369    0.7758 H         1 <0>         0.0895
     39 H5          2.5154    0.9571   -0.0319 H         1 <0>         0.0875
     40 H6          3.2607   -0.6505    0.1368 H         1 <0>         0.1095
     41 H7          3.5000   -2.1173   -1.7876 H         1 <0>         0.1622
     42 H8          3.7424   -2.2630   -4.2331 H         1 <0>         0.1304
     43 H9          2.9885   -0.4020   -5.6585 H         1 <0>         0.1252
     44 H10         1.7373    1.7453   -2.1900 H         1 <0>         0.1285
     45 H11         0.0199   -1.6989   -2.2354 H         1 <0>         0.1172
     46 H12        -0.6271   -2.5001   -4.4716 H         1 <0>         0.1120
     47 H13        -2.7841   -3.6428   -4.7945 H         1 <0>         0.1148
     48 H14        -4.2951   -3.9848   -2.8811 H         1 <0>         0.1184
     49 H15        -4.3616    1.7087   -0.5900 H         1 <0>         0.0738
     50 H16        -6.1317   -0.7506   -0.2221 H         1 <0>         0.0664
     51 H17        -6.6771    0.8451   -0.7920 H         1 <0>         0.0644
     52 H18        -5.5490   -0.1147   -1.7791 H         1 <0>         0.0610
     53 H19        -5.9000    1.8749    1.3476 H         1 <0>         0.0609
     54 H20        -5.3546    0.2793    1.9175 H         1 <0>         0.0630
     55 H21        -4.2181    1.6489    1.8847 H         1 <0>         0.0591
@<TRIPOS>BOND
     1    1    2 1
     2    1   35 1
     3    1   36 1
     4    1   37 1
     5    2    7 1
     6    2    3 2
     7    3    4 1
     8    3   29 1
     9    4    5 1
    10    4   22 1
    11    4   38 1
    12    5    6 2
    13    5   19 1
    14    6    7 1
    15    6   16 1
    16    7    8 1
    17    8    9 1
    18    8   39 1
    19    8   40 1
    20    9   14 ar
    21    9   10 ar
    22   10   11 ar
    23   10   41 1
    24   11   12 ar
    25   11   42 1
    26   12   13 ar
    27   12   43 1
    28   13   14 ar
    29   13   15 1
    30   14   44 1
    31   16   17 2
    32   16   18 1
    33   19   20 2
    34   19   21 1
    35   22   27 ar
    36   22   23 ar
    37   23   24 ar
    38   23   45 1
    39   24   25 ar
    40   24   46 1
    41   25   26 ar
    42   25   47 1
    43   26   27 ar
    44   26   48 1
    45   27   28 1
    46   29   30 2
    47   29   31 1
    48   31   32 1
    49   32   33 1
    50   32   34 1
    51   32   49 1
    52   33   50 1
    53   33   51 1
    54   33   52 1
    55   34   53 1
    56   34   54 1
    57   34   55 1
@<TRIPOS>MOLECULE
CHEMBL113762__1
   55    57     0     0     0
SMALL
USER_CHARGES

@<TRIPOS>ATOM
      1 C1          0.0569    1.4984    0.0608 C.3       1 <0>        -0.1135
      2 C2          0.0400   -0.0080    0.0216 C.2       1 <0>         0.2470
      3 C3         -1.1296   -0.6607    0.1344 C.2       1 <0>        -0.3073
      4 C4         -1.1995   -2.1609    0.1101 C.3       1 <0>         0.0764
      5 C5          0.0728   -2.7458   -0.4341 C.2       1 <0>        -0.2173
      6 C6          1.2026   -2.0088   -0.5262 C.2       1 <0>         0.0656
      7 N1          1.2136   -0.6912   -0.1337 N.pl3     1 <0>        -0.4862
      8 C7          2.4895   -0.0189    0.1236 C.3       1 <0>         0.1410
      9 C8          2.7945   -0.0676    1.5986 C.ar      1 <0>        -0.0896
     10 C9          2.3518    0.9449    2.4297 C.ar      1 <0>        -0.1047
     11 C10         2.6311    0.9009    3.7827 C.ar      1 <0>        -0.1212
     12 C11         3.3538   -0.1552    4.3056 C.ar      1 <0>        -0.1136
     13 C12         3.7969   -1.1683    3.4746 C.ar      1 <0>        -0.0349
     14 C13         3.5117   -1.1269    2.1212 C.ar      1 <0>        -0.0717
     15 Cl1         4.7045   -2.4949    4.1305 Cl        1 <0>        -0.0764
     16 C14         2.4416   -2.6262   -1.0612 C.2       1 <0>         0.5808
     17 O1          2.7232   -2.5048   -2.2438 O.co2     1 <0>        -0.6956
     18 O2          3.1801   -3.2559   -0.3189 O.co2     1 <0>        -0.6726
     19 C15         0.0898   -4.1425   -0.8731 C.2       1 <0>         0.5229
     20 O3          1.1410   -4.6598   -1.2281 O.co2     1 <0>        -0.6547
     21 O4         -0.9473   -4.7930   -0.8853 O.co2     1 <0>        -0.7058
     22 C16        -1.4196   -2.6697    1.5114 C.ar      1 <0>        -0.0162
     23 C17        -0.4988   -2.3858    2.5026 C.ar      1 <0>        -0.0907
     24 C18        -0.7006   -2.8524    3.7879 C.ar      1 <0>        -0.1269
     25 C19        -1.8233   -3.6034    4.0831 C.ar      1 <0>        -0.1322
     26 C20        -2.7446   -3.8878    3.0930 C.ar      1 <0>        -0.1284
     27 C21        -2.5460   -3.4162    1.8074 C.ar      1 <0>        -0.0019
     28 Cl2        -3.7062   -3.7675    0.5647 Cl        1 <0>        -0.0601
     29 C22        -2.3235    0.0832    0.2799 C.2       1 <0>         0.5275
     30 O5         -2.2838    1.2992    0.3018 O.2       1 <0>        -0.5592
     31 O6         -3.5068   -0.5554    0.3944 O.3       1 <0>        -0.3300
     32 C23        -4.6722    0.2589    0.5383 C.3       1 <0>         0.0815
     33 C24        -5.8761   -0.4613   -0.0723 C.3       1 <0>        -0.1465
     34 C25        -4.9327    0.5186    2.0234 C.3       1 <0>        -0.1647
     35 H1          1.0880    1.8510    0.0334 H         1 <0>         0.0561
     36 H2         -0.4841    1.8903   -0.8004 H         1 <0>         0.0892
     37 H3         -0.4208    1.8434    0.9778 H         1 <0>         0.0937
     38 H4         -2.0344   -2.4708   -0.5185 H         1 <0>         0.0924
     39 H5          3.2832   -0.5223   -0.4284 H         1 <0>         0.1087
     40 H6          2.4245    1.0200   -0.1999 H         1 <0>         0.0894
     41 H7          1.7878    1.7705    2.0215 H         1 <0>         0.1251
     42 H8          2.2851    1.6920    4.4314 H         1 <0>         0.1251
     43 H9          3.5726   -0.1890    5.3626 H         1 <0>         0.1251
     44 H10         3.8537   -1.9199    1.4726 H         1 <0>         0.1636
     45 H11         0.3786   -1.7996    2.2725 H         1 <0>         0.1171
     46 H12         0.0193   -2.6307    4.5619 H         1 <0>         0.1124
     47 H13        -1.9802   -3.9680    5.0875 H         1 <0>         0.1151
     48 H14        -3.6214   -4.4747    3.3237 H         1 <0>         0.1187
     49 H15        -4.5179    1.2080    0.0251 H         1 <0>         0.0740
     50 H16        -6.0304   -1.4104    0.4409 H         1 <0>         0.0664
     51 H17        -6.7651    0.1599    0.0375 H         1 <0>         0.0648
     52 H18        -5.6906   -0.6463   -1.1304 H         1 <0>         0.0617
     53 H19        -5.8217    1.1397    2.1332 H         1 <0>         0.0604
     54 H20        -5.0870   -0.4306    2.5367 H         1 <0>         0.0626
     55 H21        -4.0750    1.0316    2.4585 H         1 <0>         0.0577
@<TRIPOS>BOND
     1    1    2 1
     2    1   35 1
     3    1   36 1
     4    1   37 1
     5    2    7 1
     6    2    3 2
     7    3    4 1
     8    3   29 1
     9    4    5 1
    10    4   22 1
    11    4   38 1
    12    5    6 2
    13    5   19 1
    14    6    7 1
    15    6   16 1
    16    7    8 1
    17    8    9 1
    18    8   39 1
    19    8   40 1
    20    9   14 ar
    21    9   10 ar
    22   10   11 ar
    23   10   41 1
    24   11   12 ar
    25   11   42 1
    26   12   13 ar
    27   12   43 1
    28   13   14 ar
    29   13   15 1
    30   14   44 1
    31   16   17 2
    32   16   18 1
    33   19   20 2
    34   19   21 1
    35   22   27 ar
    36   22   23 ar
    37   23   24 ar
    38   23   45 1
    39   24   25 ar
    40   24   46 1
    41   25   26 ar
    42   25   47 1
    43   26   27 ar
    44   26   48 1
    45   27   28 1
    46   29   30 2
    47   29   31 1
    48   31   32 1
    49   32   33 1
    50   32   34 1
    51   32   49 1
    52   33   50 1
    53   33   51 1
    54   33   52 1
    55   34   53 1
    56   34   54 1
    57   34   55 1
@<TRIPOS>MOLECULE
CHEMBL139461
   38    41     0     0     0
SMALL
USER_CHARGES

@<TRIPOS>ATOM
      1 C1         -0.0167    1.3783    0.0096 C.ar      1 <0>        -0.1407
      2 C2          1.1702    2.0884    0.0021 C.ar      1 <0>        -0.0828
      3 C3          2.3772    1.4180   -0.0206 C.ar      1 <0>        -0.1529
      4 C4          2.3996    0.0296   -0.0409 C.ar      1 <0>         0.1643
      5 C5          1.2067   -0.6800   -0.0158 C.ar      1 <0>        -0.1375
      6 C6          0.0021   -0.0041    0.0020 C.ar      1 <0>        -0.0793
      7 C7          1.2242   -2.1866    0.0129 C.3       1 <0>        -0.0885
      8 C8          2.4252   -2.7026   -0.7801 C.3       1 <0>         0.1380
      9 C9          3.6682   -1.9631   -0.3604 C.2       1 <0>         0.5064
     10 O1          4.7230   -2.5566   -0.2831 O.2       1 <0>        -0.4937
     11 N1          3.6196   -0.6514   -0.0711 N.am      1 <0>        -0.6607
     12 N2          2.1918   -2.4905   -2.2108 N.am      1 <0>        -0.7183
     13 C10         2.8134   -3.2699   -3.1178 C.2       1 <0>         0.5838
     14 O2          3.5681   -4.1496   -2.7485 O.2       1 <0>        -0.4935
     15 C11         2.5791   -3.0570   -4.5539 C.2       1 <0>         0.0150
     16 C12         3.1405   -3.7786   -5.5590 C.2       1 <0>        -0.0914
     17 C13         2.6586   -3.2585   -6.7845 C.ar      1 <0>        -0.1114
     18 C14         2.8842   -3.5924   -8.1264 C.ar      1 <0>        -0.0469
     19 C15         2.2593   -2.8887   -9.1155 C.ar      1 <0>        -0.0608
     20 C16         1.3993   -1.8416   -8.8038 C.ar      1 <0>        -0.0763
     21 C17         1.1624   -1.4949   -7.4928 C.ar      1 <0>        -0.1180
     22 C18         1.7878   -2.1981   -6.4667 C.ar      1 <0>         0.1190
     23 N3          1.7486   -2.0953   -5.0959 N.pl3     1 <0>        -0.5762
     24 H1          1.2260   -1.4517   -4.5925 H         1 <0>         0.4184
     25 Cl1         2.5414   -3.3046  -10.7772 Cl        1 <0>        -0.0676
     26 H2         -0.9596    1.9046    0.0260 H         1 <0>         0.1283
     27 H3          1.1530    3.1682    0.0137 H         1 <0>         0.1303
     28 H4          3.3035    1.9733   -0.0230 H         1 <0>         0.1296
     29 H5         -0.9261   -0.5561    0.0103 H         1 <0>         0.1314
     30 H6          1.2970   -2.5290    1.0452 H         1 <0>         0.1053
     31 H7          0.3050   -2.5686   -0.4313 H         1 <0>         0.1024
     32 H8          2.5553   -3.7678   -0.5890 H         1 <0>         0.1342
     33 H9          4.4411   -0.1718    0.1189 H         1 <0>         0.4125
     34 H10         1.5900   -1.7891   -2.5053 H         1 <0>         0.4015
     35 H11         3.8309   -4.6011   -5.4438 H         1 <0>         0.1619
     36 H12         3.5509   -4.4041   -8.3777 H         1 <0>         0.1391
     37 H13         0.9127   -1.2947   -9.5979 H         1 <0>         0.1406
     38 H14         0.4933   -0.6795   -7.2608 H         1 <0>         0.1342
@<TRIPOS>BOND
     1    1    6 ar
     2    1    2 ar
     3    1   26 1
     4    2    3 ar
     5    2   27 1
     6    3    4 ar
     7    3   28 1
     8    4   11 1
     9    4    5 ar
    10    5    6 ar
    11    5    7 1
    12    6   29 1
    13    7    8 1
    14    7   30 1
    15    7   31 1
    16    8    9 1
    17    8   12 1
    18    8   32 1
    19    9   10 2
    20    9   11 am
    21   11   33 1
    22   12   13 am
    23   12   34 1
    24   13   14 2
    25   13   15 1
    26   15   23 1
    27   15   16 2
    28   16   17 1
    29   16   35 1
    30   17   22 ar
    31   17   18 ar
    32   18   19 ar
    33   18   36 1
    34   19   20 ar
    35   19   25 1
    36   20   21 ar
    37   20   37 1
    38   21   22 ar
    39   21   38 1
    40   22   23 1
    41   23   24 1
@<TRIPOS>MOLECULE
CHEMBL139461__1
   38    41     0     0     0
SMALL
USER_CHARGES

@<TRIPOS>ATOM
      1 C1         -0.0167    1.3783    0.0096 C.ar      1 <0>        -0.1406
      2 C2          1.1702    2.0884    0.0021 C.ar      1 <0>        -0.0829
      3 C3          2.3773    1.4179   -0.0055 C.ar      1 <0>        -0.1529
      4 C4          2.4000    0.0294   -0.0006 C.ar      1 <0>         0.1643
      5 C5          1.2067   -0.6800   -0.0106 C.ar      1 <0>        -0.1375
      6 C6          0.0021   -0.0041    0.0020 C.ar      1 <0>        -0.0794
      7 C7          1.2235   -2.1863   -0.0558 C.3       1 <0>        -0.0885
      8 C8          2.4394   -2.7106    0.7086 C.3       1 <0>         0.1380
      9 C9          3.6742   -1.9665    0.2732 C.2       1 <0>         0.5064
     10 O1          4.7272   -2.5593    0.1686 O.2       1 <0>        -0.4938
     11 N1          3.6203   -0.6518   -0.0010 N.am      1 <0>        -0.6606
     12 N2          2.2335   -2.5140    2.1456 N.am      1 <0>        -0.7183
     13 C10         2.8721   -3.3031    3.0321 C.2       1 <0>         0.5838
     14 O2          3.6196   -4.1786    2.6390 O.2       1 <0>        -0.4935
     15 C11         2.6654   -3.1057    4.4747 C.2       1 <0>         0.0151
     16 C12         3.2548   -3.8304    5.4613 C.2       1 <0>        -0.0915
     17 C13         2.7930   -3.3265    6.7012 C.ar      1 <0>        -0.1113
     18 C14         3.0491   -3.6707    8.0350 C.ar      1 <0>        -0.0469
     19 C15         2.4368   -2.9832    9.0432 C.ar      1 <0>        -0.0608
     20 C16         1.5598   -1.9424    8.7590 C.ar      1 <0>        -0.0763
     21 C17         1.2922   -1.5864    7.4564 C.ar      1 <0>        -0.1180
     22 C18         1.9049   -2.2725    6.4112 C.ar      1 <0>         0.1189
     23 N3          1.8455   -2.1500    5.0427 N.pl3     1 <0>        -0.5762
     24 H1          1.3134   -1.5010    4.5564 H         1 <0>         0.4184
     25 Cl1         2.7558   -3.4126   10.6948 Cl        1 <0>        -0.0676
     26 H2         -0.9596    1.9046    0.0260 H         1 <0>         0.1283
     27 H3          1.1529    3.1683    0.0018 H         1 <0>         0.1303
     28 H4          3.3036    1.9733   -0.0155 H         1 <0>         0.1296
     29 H5         -0.9262   -0.5561    0.0063 H         1 <0>         0.1314
     30 H6          0.3130   -2.5731    0.4018 H         1 <0>         0.1024
     31 H7          1.2766   -2.5174   -1.0929 H         1 <0>         0.1053
     32 H8          2.5657   -3.7737    0.5035 H         1 <0>         0.1342
     33 H9          4.4380   -0.1701   -0.2015 H         1 <0>         0.4125
     34 H10         1.6374   -1.8158    2.4591 H         1 <0>         0.4015
     35 H11         3.9504   -4.6451    5.3243 H         1 <0>         0.1619
     36 H12         3.7286   -4.4780    8.2650 H         1 <0>         0.1391
     37 H13         1.0835   -1.4084    9.5679 H         1 <0>         0.1406
     38 H14         0.6089   -0.7770    7.2457 H         1 <0>         0.1343
@<TRIPOS>BOND
     1    1    6 ar
     2    1    2 ar
     3    1   26 1
     4    2    3 ar
     5    2   27 1
     6    3    4 ar
     7    3   28 1
     8    4   11 1
     9    4    5 ar
    10    5    6 ar
    11    5    7 1
    12    6   29 1
    13    7    8 1
    14    7   30 1
    15    7   31 1
    16    8    9 1
    17    8   12 1
    18    8   32 1
    19    9   10 2
    20    9   11 am
    21   11   33 1
    22   12   13 am
    23   12   34 1
    24   13   14 2
    25   13   15 1
    26   15   23 1
    27   15   16 2
    28   16   17 1
    29   16   35 1
    30   17   22 ar
    31   17   18 ar
    32   18   19 ar
    33   18   36 1
    34   19   20 ar
    35   19   25 1
    36   20   21 ar
    37   20   37 1
    38   21   22 ar
    39   21   38 1
    40   22   23 1
    41   23   24 1
@<TRIPOS>MOLECULE
CHEMBL114731
   55    57     0     0     0
SMALL
USER_CHARGES

@<TRIPOS>ATOM
      1 C1          0.1864    1.6357   -0.0416 C.3       1 <0>        -0.1126
      2 C2          0.0446    0.1365    0.0152 C.2       1 <0>         0.2501
      3 C3         -1.1820   -0.4133    0.0210 C.2       1 <0>        -0.3105
      4 C4         -1.3773   -1.9018    0.0670 C.3       1 <0>         0.0787
      5 C5         -0.1134   -2.5931    0.4934 C.2       1 <0>        -0.2195
      6 C6          1.0788   -1.9559    0.4701 C.2       1 <0>         0.0682
      7 N1          1.1650   -0.6453    0.0545 N.pl3     1 <0>        -0.4869
      8 C7          2.4598   -0.0862   -0.3417 C.3       1 <0>         0.1414
      9 C8          2.6083   -0.1746   -1.8387 C.ar      1 <0>        -0.1010
     10 C9          3.1687   -1.3005   -2.4124 C.ar      1 <0>        -0.0804
     11 C10         3.3049   -1.3816   -3.7857 C.ar      1 <0>        -0.1257
     12 C11         2.8802   -0.3369   -4.5852 C.ar      1 <0>        -0.1228
     13 C12         2.3190    0.7886   -4.0116 C.ar      1 <0>        -0.1361
     14 C13         2.1789    0.8679   -2.6386 C.ar      1 <0>        -0.1085
     15 C14         2.3061   -2.6767    0.8908 C.2       1 <0>         0.5822
     16 O1          2.9583   -3.3034    0.0696 O.co2     1 <0>        -0.6870
     17 O2          2.6641   -2.6433    2.0585 O.co2     1 <0>        -0.6839
     18 C15        -0.1741   -3.9849    0.9439 C.2       1 <0>         0.5233
     19 O3          0.8262   -4.5257    1.3974 O.co2     1 <0>        -0.6570
     20 O4         -1.2252   -4.6079    0.8670 O.co2     1 <0>        -0.7045
     21 C16        -1.7732   -2.3925   -1.3018 C.ar      1 <0>        -0.0133
     22 C17        -0.9255   -2.2009   -2.3768 C.ar      1 <0>        -0.0916
     23 C18        -1.2885   -2.6509   -3.6323 C.ar      1 <0>        -0.1280
     24 C19        -2.4996   -3.2929   -3.8138 C.ar      1 <0>        -0.1332
     25 C20        -3.3478   -3.4850   -2.7399 C.ar      1 <0>        -0.1294
     26 C21        -2.9825   -3.0397   -1.4817 C.ar      1 <0>         0.0024
     27 Cl1        -4.0446   -3.2866   -0.1309 Cl        1 <0>        -0.0624
     28 C22        -2.3163    0.4304   -0.0168 C.2       1 <0>         0.5273
     29 O5         -2.1751    1.6385   -0.0539 O.2       1 <0>        -0.5598
     30 O6         -3.5554   -0.1042   -0.0116 O.3       1 <0>        -0.3305
     31 C23        -4.6553    0.8072   -0.0512 C.3       1 <0>         0.0815
     32 C24        -5.8384    0.1481   -0.7632 C.3       1 <0>        -0.1450
     33 C25        -5.0617    1.1783    1.3764 C.3       1 <0>        -0.1669
     34 H1          1.2411    1.9036    0.0218 H         1 <0>         0.0561
     35 H2         -0.2262    2.0044   -0.9807 H         1 <0>         0.0872
     36 H3         -0.3530    2.0836    0.7929 H         1 <0>         0.0942
     37 H4         -2.1716   -2.1376    0.7752 H         1 <0>         0.0889
     38 H5          2.5150    0.9575   -0.0321 H         1 <0>         0.0845
     39 H6          3.2607   -0.6499    0.1368 H         1 <0>         0.1053
     40 H7          3.5004   -2.1167   -1.7878 H         1 <0>         0.1547
     41 H8          3.7433   -2.2609   -4.2338 H         1 <0>         0.1182
     42 H9          2.9873   -0.4000   -5.6581 H         1 <0>         0.1120
     43 H10         1.9876    1.6049   -4.6362 H         1 <0>         0.1128
     44 H11         1.7370    1.7457   -2.1907 H         1 <0>         0.1164
     45 H12         0.0204   -1.6992   -2.2357 H         1 <0>         0.1185
     46 H13        -0.6261   -2.5007   -4.4719 H         1 <0>         0.1121
     47 H14        -2.7828   -3.6439   -4.7951 H         1 <0>         0.1145
     48 H15        -4.2939   -3.9861   -2.8818 H         1 <0>         0.1181
     49 H16        -4.3620    1.7074   -0.5912 H         1 <0>         0.0735
     50 H17        -6.1317   -0.7522   -0.2232 H         1 <0>         0.0663
     51 H18        -6.6774    0.8432   -0.7934 H         1 <0>         0.0642
     52 H19        -5.5489   -0.1163   -1.7802 H         1 <0>         0.0609
     53 H20        -5.3550    0.2780    1.9164 H         1 <0>         0.0630
     54 H21        -4.2189    1.6478    1.8836 H         1 <0>         0.0591
     55 H22        -5.9008    1.8735    1.3462 H         1 <0>         0.0608
@<TRIPOS>BOND
     1    1    2 1
     2    1   34 1
     3    1   35 1
     4    1   36 1
     5    2    7 1
     6    2    3 2
     7    3    4 1
     8    3   28 1
     9    4    5 1
    10    4   21 1
    11    4   37 1
    12    5    6 2
    13    5   18 1
    14    6    7 1
    15    6   15 1
    16    7    8 1
    17    8    9 1
    18    8   38 1
    19    8   39 1
    20    9   14 ar
    21    9   10 ar
    22   10   11 ar
    23   10   40 1
    24   11   12 ar
    25   11   41 1
    26   12   13 ar
    27   12   42 1
    28   13   14 ar
    29   13   43 1
    30   14   44 1
    31   15   16 2
    32   15   17 1
    33   18   19 2
    34   18   20 1
    35   21   26 ar
    36   21   22 ar
    37   22   23 ar
    38   22   45 1
    39   23   24 ar
    40   23   46 1
    41   24   25 ar
    42   24   47 1
    43   25   26 ar
    44   25   48 1
    45   26   27 1
    46   28   29 2
    47   28   30 1
    48   30   31 1
    49   31   32 1
    50   31   33 1
    51   31   49 1
    52   32   50 1
    53   32   51 1
    54   32   52 1
    55   33   53 1
    56   33   54 1
    57   33   55 1
@<TRIPOS>MOLECULE
CHEMBL114731__1
   55    57     0     0     0
SMALL
USER_CHARGES

@<TRIPOS>ATOM
      1 C1          0.0569    1.4984    0.0608 C.3       1 <0>        -0.1132
      2 C2          0.0400   -0.0080    0.0216 C.2       1 <0>         0.2492
      3 C3         -1.1296   -0.6607    0.1343 C.2       1 <0>        -0.3102
      4 C4         -1.1995   -2.1609    0.1101 C.3       1 <0>         0.0772
      5 C5          0.0728   -2.7458   -0.4341 C.2       1 <0>        -0.2197
      6 C6          1.2026   -2.0088   -0.5262 C.2       1 <0>         0.0677
      7 N1          1.2136   -0.6912   -0.1337 N.pl3     1 <0>        -0.4852
      8 C7          2.4895   -0.0189    0.1236 C.3       1 <0>         0.1405
      9 C8          2.7945   -0.0675    1.5986 C.ar      1 <0>        -0.1014
     10 C9          2.3519    0.9446    2.4297 C.ar      1 <0>        -0.1087
     11 C10         2.6316    0.9000    3.7827 C.ar      1 <0>        -0.1354
     12 C11         3.3536   -0.1570    4.3047 C.ar      1 <0>        -0.1228
     13 C12         3.7954   -1.1696    3.4738 C.ar      1 <0>        -0.1249
     14 C13         3.5119   -1.1271    2.1215 C.ar      1 <0>        -0.0799
     15 C14         2.4417   -2.6262   -1.0611 C.2       1 <0>         0.5818
     16 O1          2.7233   -2.5048   -2.2438 O.co2     1 <0>        -0.6962
     17 O2          3.1801   -3.2559   -0.3188 O.co2     1 <0>        -0.6746
     18 C15         0.0898   -4.1425   -0.8732 C.2       1 <0>         0.5232
     19 O3          1.1411   -4.6598   -1.2281 O.co2     1 <0>        -0.6558
     20 O4         -0.9472   -4.7931   -0.8853 O.co2     1 <0>        -0.7059
     21 C16        -1.4196   -2.6698    1.5114 C.ar      1 <0>        -0.0157
     22 C17        -0.4988   -2.3858    2.5026 C.ar      1 <0>        -0.0908
     23 C18        -0.7006   -2.8525    3.7879 C.ar      1 <0>        -0.1274
     24 C19        -1.8233   -3.6034    4.0830 C.ar      1 <0>        -0.1330
     25 C20        -2.7446   -3.8879    3.0930 C.ar      1 <0>        -0.1288
     26 C21        -2.5460   -3.4162    1.8074 C.ar      1 <0>        -0.0023
     27 Cl1        -3.7061   -3.7676    0.5647 Cl        1 <0>        -0.0603
     28 C22        -2.3235    0.0832    0.2798 C.2       1 <0>         0.5274
     29 O5         -2.2838    1.2992    0.3018 O.2       1 <0>        -0.5598
     30 O6         -3.5068   -0.5555    0.3943 O.3       1 <0>        -0.3303
     31 C23        -4.6723    0.2588    0.5383 C.3       1 <0>         0.0814
     32 C24        -5.8761   -0.4614   -0.0724 C.3       1 <0>        -0.1464
     33 C25        -4.9328    0.5185    2.0234 C.3       1 <0>        -0.1647
     34 H1          1.0879    1.8510    0.0334 H         1 <0>         0.0563
     35 H2         -0.4842    1.8903   -0.8004 H         1 <0>         0.0885
     36 H3         -0.4208    1.8434    0.9778 H         1 <0>         0.0933
     37 H4         -2.0344   -2.4709   -0.5185 H         1 <0>         0.0919
     38 H5          3.2832   -0.5223   -0.4283 H         1 <0>         0.1059
     39 H6          2.4244    1.0200   -0.1999 H         1 <0>         0.0850
     40 H7          1.7879    1.7704    2.0218 H         1 <0>         0.1171
     41 H8          2.2865    1.6911    4.4319 H         1 <0>         0.1132
     42 H9          3.5727   -0.1915    5.3617 H         1 <0>         0.1123
     43 H10         4.3597   -1.9952    3.8816 H         1 <0>         0.1185
     44 H11         3.8539   -1.9201    1.4729 H         1 <0>         0.1515
     45 H12         0.3785   -1.7996    2.2725 H         1 <0>         0.1186
     46 H13         0.0193   -2.6307    4.5618 H         1 <0>         0.1125
     47 H14        -1.9803   -3.9681    5.0874 H         1 <0>         0.1148
     48 H15        -3.6214   -4.4748    3.3236 H         1 <0>         0.1185
     49 H16        -4.5180    1.2080    0.0250 H         1 <0>         0.0738
     50 H17        -6.0304   -1.4105    0.4408 H         1 <0>         0.0663
     51 H18        -6.7651    0.1597    0.0374 H         1 <0>         0.0647
     52 H19        -5.6906   -0.6464   -1.1304 H         1 <0>         0.0617
     53 H20        -5.0870   -0.4307    2.5366 H         1 <0>         0.0625
     54 H21        -4.0751    1.0316    2.4584 H         1 <0>         0.0578
     55 H22        -5.8217    1.1396    2.1332 H         1 <0>         0.0603
@<TRIPOS>BOND
     1    1    2 1
     2    1   34 1
     3    1   35 1
     4    1   36 1
     5    2    7 1
     6    2    3 2
     7    3    4 1
     8    3   28 1
     9    4    5 1
    10    4   21 1
    11    4   37 1
    12    5    6 2
    13    5   18 1
    14    6    7 1
    15    6   15 1
    16    7    8 1
    17    8    9 1
    18    8   38 1
    19    8   39 1
    20    9   14 ar
    21    9   10 ar
    22   10   11 ar
    23   10   40 1
    24   11   12 ar
    25   11   41 1
    26   12   13 ar
    27   12   42 1
    28   13   14 ar
    29   13   43 1
    30   14   44 1
    31   15   16 2
    32   15   17 1
    33   18   19 2
    34   18   20 1
    35   21   26 ar
    36   21   22 ar
    37   22   23 ar
    38   22   45 1
    39   23   24 ar
    40   23   46 1
    41   24   25 ar
    42   24   47 1
    43   25   26 ar
    44   25   48 1
    45   26   27 1
    46   28   29 2
    47   28   30 1
    48   30   31 1
    49   31   32 1
    50   31   33 1
    51   31   49 1
    52   32   50 1
    53   32   51 1
    54   32   52 1
    55   33   53 1
    56   33   54 1
    57   33   55 1
@<TRIPOS>MOLECULE
CHEMBL372696
   58    61     0     0     0
SMALL
USER_CHARGES

@<TRIPOS>ATOM
      1 C1          0.6157    0.8920   -0.3490 C.3       1 <0>        -0.0551
      2 N1          0.4403   -0.5520   -0.1442 N.4       1 <0>        -0.3819
      3 C2          1.1483   -1.2861   -1.2016 C.3       1 <0>        -0.0470
      4 C3          0.9874   -0.9309    1.1654 C.3       1 <0>        -0.0315
      5 C4          0.1694   -0.2628    2.2724 C.3       1 <0>         0.0775
      6 N2          0.7150   -0.6406    3.5785 N.am      1 <0>        -0.5042
      7 C5          0.2521   -1.7680    4.2324 C.ar      1 <0>         0.0885
      8 C6         -0.7381   -2.5558    3.6541 C.ar      1 <0>        -0.1519
      9 C7         -1.1937   -3.6779    4.3121 C.ar      1 <0>        -0.0770
     10 C8         -0.6716   -4.0290    5.5494 C.ar      1 <0>        -0.1168
     11 C9          0.3003   -3.2702    6.1347 C.ar      1 <0>        -0.0506
     12 C10         0.7808   -2.1237    5.4856 C.ar      1 <0>         0.0952
     13 N3          1.7418   -1.3743    6.0644 N.2       1 <0>        -0.4775
     14 C11         2.2048   -0.3005    5.4767 C.2       1 <0>         0.3638
     15 C12         1.6813    0.1041    4.1587 C.2       1 <0>         0.5161
     16 O1          2.1109    1.0982    3.6031 O.2       1 <0>        -0.5067
     17 N4          3.1912    0.4528    6.0900 N.pl3     1 <0>        -0.6238
     18 C13         3.7721    0.0073    7.2733 C.ar      1 <0>         0.1763
     19 C14         4.0320   -1.3487    7.4520 C.ar      1 <0>        -0.1174
     20 C15         4.6069   -1.7923    8.6211 C.ar      1 <0>        -0.0362
     21 C16         4.9298   -0.8799    9.6296 C.ar      1 <0>        -0.1439
     22 C17         4.6676    0.4810    9.4472 C.ar      1 <0>        -0.0622
     23 C18         4.0974    0.9191    8.2737 C.ar      1 <0>        -0.1463
     24 C19         5.5458   -1.3523   10.8844 C.2       1 <0>         0.5608
     25 O2          5.7730   -2.5364   11.0420 O.2       1 <0>        -0.5314
     26 N5          5.8566   -0.4714   11.8559 N.am      1 <0>        -0.7239
     27 C20         6.4682   -0.9404   13.1018 C.3       1 <0>         0.2081
     28 C21         6.7138    0.2338   14.0139 C.2       1 <0>        -0.1812
     29 C22         5.8986    0.7680   14.9560 C.2       1 <0>        -0.1280
     30 C23         6.3387    1.8579   15.6832 C.2       1 <0>        -0.1650
     31 C24         7.5725    2.3604   15.4329 C.2       1 <0>        -0.1591
     32 S1          8.1569    1.2772   14.1397 S.3       1 <0>         0.0532
     33 H1          1.6770    1.1377   -0.3138 H         1 <0>         0.1264
     34 H2          0.2097    1.1731   -1.3208 H         1 <0>         0.1304
     35 H3          0.0904    1.4367    0.4355 H         1 <0>         0.1241
     36 H4          2.2096   -1.0403   -1.1663 H         1 <0>         0.1237
     37 H5          1.0182   -2.3576   -1.0496 H         1 <0>         0.1254
     38 H6          0.7423   -1.0050   -2.1733 H         1 <0>         0.1298
     39 H7          0.9381   -2.0137    1.2803 H         1 <0>         0.1390
     40 H8          2.0253   -0.6051    1.2336 H         1 <0>         0.1379
     41 H9          0.2187    0.8200    2.1575 H         1 <0>         0.1216
     42 H10        -0.8685   -0.5886    2.2042 H         1 <0>         0.1178
     43 H11        -1.1491   -2.2885    2.6918 H         1 <0>         0.1261
     44 H12        -1.9626   -4.2883    3.8619 H         1 <0>         0.1380
     45 H13        -1.0382   -4.9107    6.0539 H         1 <0>         0.1411
     46 H14         0.6995   -3.5530    7.0975 H         1 <0>         0.1477
     47 H15         3.4774    1.2911    5.6948 H         1 <0>         0.4303
     48 H16         3.7820   -2.0532    6.6726 H         1 <0>         0.1360
     49 H17         4.8079   -2.8444    8.7593 H         1 <0>         0.1427
     50 H18         4.9156    1.1883   10.2247 H         1 <0>         0.1322
     51 H19         3.8983    1.9709    8.1305 H         1 <0>         0.1344
     52 H20         5.6753    0.4732   11.7302 H         1 <0>         0.4024
     53 H21         5.7984   -1.6472   13.5916 H         1 <0>         0.0944
     54 H22         7.4153   -1.4318   12.8791 H         1 <0>         0.0870
     55 H23         4.9197    0.3485   15.1354 H         1 <0>         0.1360
     56 H24         5.7089    2.3028   16.4394 H         1 <0>         0.1376
     57 H25         8.0736    3.1965   15.8979 H         1 <0>         0.1890
     58 H26        -0.5422   -0.7795   -0.1769 H         1 <0>         0.4281
@<TRIPOS>BOND
     1    1    2 1
     2    1   33 1
     3    1   34 1
     4    1   35 1
     5    2    3 1
     6    2    4 1
     7    2   58 1
     8    3   36 1
     9    3   37 1
    10    3   38 1
    11    4    5 1
    12    4   39 1
    13    4   40 1
    14    5    6 1
    15    5   41 1
    16    5   42 1
    17    6   15 am
    18    6    7 1
    19    7   12 ar
    20    7    8 ar
    21    8    9 ar
    22    8   43 1
    23    9   10 ar
    24    9   44 1
    25   10   11 ar
    26   10   45 1
    27   11   12 ar
    28   11   46 1
    29   12   13 1
    30   13   14 2
    31   14   15 1
    32   14   17 1
    33   15   16 2
    34   17   18 1
    35   17   47 1
    36   18   23 ar
    37   18   19 ar
    38   19   20 ar
    39   19   48 1
    40   20   21 ar
    41   20   49 1
    42   21   22 ar
    43   21   24 1
    44   22   23 ar
    45   22   50 1
    46   23   51 1
    47   24   25 2
    48   24   26 am
    49   26   27 1
    50   26   52 1
    51   27   28 1
    52   27   53 1
    53   27   54 1
    54   28   32 1
    55   28   29 2
    56   29   30 1
    57   29   55 1
    58   30   31 2
    59   30   56 1
    60   31   32 1
    61   31   57 1
@<TRIPOS>MOLECULE
CHEMBL440386
   49    52     0     0     0
SMALL
USER_CHARGES

@<TRIPOS>ATOM
      1 C1         -4.1416    0.3035    0.6860 C.3       1 <0>        -0.1190
      2 C2         -3.3954   -1.0003    0.5657 C.ar      1 <0>        -0.0458
      3 C3         -3.5474   -1.7787   -0.5734 C.ar      1 <0>        -0.1294
      4 C4         -2.8802   -2.9625   -0.7009 C.ar      1 <0>        -0.0501
      5 C5         -2.0308   -3.4026    0.3247 C.ar      1 <0>         0.0725
      6 C6         -1.8764   -2.6141    1.4782 C.ar      1 <0>         0.1143
      7 C7         -2.5625   -1.4085    1.5852 C.ar      1 <0>        -0.1486
      8 N1         -1.0423   -3.0332    2.4989 N.am      1 <0>        -0.5064
      9 C8         -0.3835   -4.2053    2.3684 C.2       1 <0>         0.5087
     10 O1          0.3565   -4.5984    3.2512 O.2       1 <0>        -0.5126
     11 C9         -0.5733   -5.0024    1.1422 C.2       1 <0>         0.3537
     12 N2         -1.3711   -4.5726    0.1980 N.2       1 <0>        -0.4776
     13 N3          0.0930   -6.2062    0.9898 N.pl3     1 <0>        -0.6299
     14 C10         0.0066   -6.9019   -0.2120 C.ar      1 <0>         0.1912
     15 C11         0.0026   -6.2069   -1.4183 C.ar      1 <0>        -0.1208
     16 C12        -0.0828   -6.8922   -2.6087 C.ar      1 <0>        -0.0342
     17 C13        -0.1651   -8.2876   -2.6058 C.ar      1 <0>        -0.1557
     18 C14        -0.1603   -8.9827   -1.3930 C.ar      1 <0>        -0.0619
     19 C15        -0.0698   -8.2920   -0.2061 C.ar      1 <0>        -0.1532
     20 C16        -0.2572   -9.0254   -3.8803 C.2       1 <0>         0.5642
     21 O2         -0.2616   -8.4195   -4.9345 O.2       1 <0>        -0.5346
     22 N4         -0.3364  -10.3708   -3.8759 N.am      1 <0>        -0.7262
     23 C17        -0.4279  -11.1033   -5.1413 C.3       1 <0>         0.2078
     24 C18        -0.5045  -12.5821   -4.8613 C.2       1 <0>        -0.1761
     25 C19        -1.5986  -13.3587   -4.6681 C.2       1 <0>        -0.1308
     26 C20        -1.4278  -14.7085   -4.4239 C.2       1 <0>        -0.1636
     27 C21        -0.1713  -15.2156   -4.3848 C.2       1 <0>        -0.1626
     28 S1          0.8217  -13.7671   -4.7058 S.3       1 <0>         0.0524
     29 C22        -0.8754   -2.2173    3.7042 C.3       1 <0>         0.0665
     30 H1         -3.5360    1.1084    0.2696 H         1 <0>         0.0772
     31 H2         -5.0818    0.2358    0.1387 H         1 <0>         0.0732
     32 H3         -4.3467    0.5092    1.7366 H         1 <0>         0.0695
     33 H4         -4.2002   -1.4446   -1.3663 H         1 <0>         0.1347
     34 H5         -3.0065   -3.5604   -1.5913 H         1 <0>         0.1420
     35 H6         -2.4458   -0.7957    2.4668 H         1 <0>         0.1352
     36 H7          0.6202   -6.5647    1.7209 H         1 <0>         0.4297
     37 H8          0.0662   -5.1288   -1.4199 H         1 <0>         0.1378
     38 H9         -0.0866   -6.3524   -3.5441 H         1 <0>         0.1403
     39 H10        -0.2241  -10.0608   -1.3875 H         1 <0>         0.1287
     40 H11        -0.0624   -8.8287    0.7311 H         1 <0>         0.1331
     41 H12        -0.3329  -10.8541   -3.0349 H         1 <0>         0.4024
     42 H13        -1.3220  -10.7886   -5.6795 H         1 <0>         0.0935
     43 H14         0.4535  -10.8934   -5.7472 H         1 <0>         0.0859
     44 H15        -2.5888  -12.9293   -4.7042 H         1 <0>         0.1361
     45 H16        -2.2826  -15.3494   -4.2662 H         1 <0>         0.1367
     46 H17         0.1464  -16.2327   -4.2090 H         1 <0>         0.1879
     47 H18        -1.6212   -2.5062    4.4447 H         1 <0>         0.0784
     48 H19         0.1226   -2.3738    4.1135 H         1 <0>         0.0951
     49 H20        -1.0034   -1.1648    3.4511 H         1 <0>         0.0906
@<TRIPOS>BOND
     1    1    2 1
     2    1   30 1
     3    1   31 1
     4    1   32 1
     5    2    7 ar
     6    2    3 ar
     7    3    4 ar
     8    3   33 1
     9    4    5 ar
    10    4   34 1
    11    5   12 1
    12    5    6 ar
    13    6    7 ar
    14    6    8 1
    15    7   35 1
    16    8    9 am
    17    8   29 1
    18    9   10 2
    19    9   11 1
    20   11   12 2
    21   11   13 1
    22   13   14 1
    23   13   36 1
    24   14   19 ar
    25   14   15 ar
    26   15   16 ar
    27   15   37 1
    28   16   17 ar
    29   16   38 1
    30   17   18 ar
    31   17   20 1
    32   18   19 ar
    33   18   39 1
    34   19   40 1
    35   20   21 2
    36   20   22 am
    37   22   23 1
    38   22   41 1
    39   23   24 1
    40   23   42 1
    41   23   43 1
    42   24   28 1
    43   24   25 2
    44   25   26 1
    45   25   44 1
    46   26   27 2
    47   26   45 1
    48   27   28 1
    49   27   46 1
    50   29   47 1
    51   29   48 1
    52   29   49 1
@<TRIPOS>MOLECULE
CHEMBL132640
   40    42     0     0     0
SMALL
USER_CHARGES

@<TRIPOS>ATOM
      1 C1         -0.0400    1.8700   -0.3542 C.ar      1 <0>        -0.0524
      2 C2          1.0414    2.2344    0.4263 C.ar      1 <0>        -0.1870
      3 C3          2.0867    1.3457    0.6225 C.ar      1 <0>         0.1572
      4 C4          2.0448    0.0846    0.0319 C.ar      1 <0>         0.0568
      5 C5          0.9551   -0.2752   -0.7507 C.ar      1 <0>         0.1397
      6 C6         -0.0839    0.6190   -0.9414 C.ar      1 <0>        -0.1892
      7 F1          0.9099   -1.4968   -1.3260 F         1 <0>        -0.1252
      8 N1          3.0989   -0.8178    0.2265 N.am      1 <0>        -0.6356
      9 C7          2.8383   -2.0940    0.5725 C.2       1 <0>         0.5684
     10 O1          1.6894   -2.4876    0.6224 O.2       1 <0>        -0.5088
     11 C8          3.9520   -3.0170    0.8920 C.ar      1 <0>         0.1060
     12 C9          3.6762   -4.3362    1.2433 C.ar      1 <0>        -0.1048
     13 C10         4.7300   -5.1887    1.5393 C.ar      1 <0>        -0.0003
     14 C11         6.0231   -4.6895    1.4730 C.ar      1 <0>        -0.1446
     15 C12         6.2223   -3.3662    1.1162 C.ar      1 <0>         0.1190
     16 N2          5.2046   -2.5812    0.8357 N.ar      1 <0>        -0.4490
     17 Cl1         4.4377   -6.8413    1.9831 Cl        1 <0>        -0.0467
     18 O2          3.1506    1.7039    1.3892 O.3       1 <0>        -0.2459
     19 C13         3.0971    2.8950    2.0362 C.ar      1 <0>         0.0414
     20 C14         2.4130    2.9974    3.2416 C.ar      1 <0>        -0.1590
     21 C15         2.3519    4.2039    3.9086 C.ar      1 <0>        -0.0845
     22 C16         2.9776    5.3297    3.3748 C.ar      1 <0>        -0.1090
     23 C17         3.6727    5.2292    2.1517 C.ar      1 <0>        -0.0637
     24 C18         3.7318    4.0069    1.4932 C.ar      1 <0>        -0.1205
     25 C19         4.3393    6.4160    1.5762 C.2       1 <0>         0.5613
     26 O3          3.7270    7.1527    0.8165 O.co2     1 <0>        -0.6936
     27 O4          5.5030    6.6612    1.8599 O.co2     1 <0>        -0.6894
     28 C20         2.9126    6.6199    4.0856 C.2       1 <0>         0.5133
     29 O5          2.2483    6.7224    5.1075 O.co2     1 <0>        -0.7136
     30 O6          3.5229    7.5877    3.6533 O.co2     1 <0>        -0.6357
     31 H1         -0.8550    2.5630   -0.5021 H         1 <0>         0.1383
     32 H2          1.0718    3.2125    0.8832 H         1 <0>         0.1496
     33 H3         -0.9310    0.3389   -1.5499 H         1 <0>         0.1364
     34 H4          4.0162   -0.5240    0.1120 H         1 <0>         0.4253
     35 H5          2.6568   -4.6904    1.2851 H         1 <0>         0.1600
     36 H6          6.8658   -5.3265    1.6976 H         1 <0>         0.1520
     37 H7          7.2273   -2.9743    1.0639 H         1 <0>         0.1767
     38 H8          1.9262    2.1281    3.6584 H         1 <0>         0.1120
     39 H9          1.8185    4.2762    4.8449 H         1 <0>         0.1279
     40 H10         4.2663    3.9215    0.5586 H         1 <0>         0.1174
@<TRIPOS>BOND
     1    1    6 ar
     2    1    2 ar
     3    1   31 1
     4    2    3 ar
     5    2   32 1
     6    3    4 ar
     7    3   18 1
     8    4    5 ar
     9    4    8 1
    10    5    6 ar
    11    5    7 1
    12    6   33 1
    13    8    9 am
    14    8   34 1
    15    9   10 2
    16    9   11 1
    17   11   16 ar
    18   11   12 ar
    19   12   13 ar
    20   12   35 1
    21   13   14 ar
    22   13   17 1
    23   14   15 ar
    24   14   36 1
    25   15   16 ar
    26   15   37 1
    27   18   19 1
    28   19   24 ar
    29   19   20 ar
    30   20   21 ar
    31   20   38 1
    32   21   22 ar
    33   21   39 1
    34   22   23 ar
    35   22   28 1
    36   23   24 ar
    37   23   25 1
    38   24   40 1
    39   25   26 2
    40   25   27 1
    41   28   29 2
    42   28   30 1
@<TRIPOS>MOLECULE
CHEMBL133911
   42    44     0     0     0
SMALL
USER_CHARGES

@<TRIPOS>ATOM
      1 C1         -0.0415    1.8710   -0.3534 C.ar      1 <0>        -0.0499
      2 C2          1.0402    2.2351    0.4268 C.ar      1 <0>        -0.1866
      3 C3          2.0854    1.3461    0.6225 C.ar      1 <0>         0.1589
      4 C4          2.0431    0.0852    0.0318 C.ar      1 <0>         0.0531
      5 C5          0.9530   -0.2743   -0.7506 C.ar      1 <0>         0.1409
      6 C6         -0.0859    0.6202   -0.9407 C.ar      1 <0>        -0.1885
      7 F1          0.9074   -1.4958   -1.3260 F         1 <0>        -0.1252
      8 N1          3.0970   -0.8174    0.2257 N.am      1 <0>        -0.6319
      9 C7          2.8363   -2.0937    0.5717 C.2       1 <0>         0.5678
     10 O1          1.6874   -2.4870    0.6220 O.2       1 <0>        -0.5006
     11 C8          3.9499   -3.0169    0.8906 C.ar      1 <0>         0.1060
     12 C9          3.6740   -4.3367    1.2420 C.ar      1 <0>        -0.0541
     13 C10         4.7264   -5.1886    1.5372 C.ar      1 <0>        -0.0102
     14 C11         6.0187   -4.6910    1.4708 C.ar      1 <0>        -0.0899
     15 C12         6.2193   -3.3673    1.1141 C.ar      1 <0>         0.1185
     16 N2          5.2024   -2.5816    0.8340 N.ar      1 <0>        -0.4146
     17 N3          4.4763   -6.5976    1.9154 N.pl3     1 <0>         0.0301
     18 O2          3.3438   -7.0171    1.9694 O.2       1 <0>        -0.1380
     19 O3          5.4047   -7.3290    2.1702 O.3       1 <0>        -0.1436
     20 O4          3.1496    1.7040    1.3888 O.3       1 <0>        -0.2463
     21 C13         3.0966    2.8951    2.0360 C.ar      1 <0>         0.0398
     22 C14         2.4131    2.9974    3.2418 C.ar      1 <0>        -0.1588
     23 C15         2.3524    4.2038    3.9090 C.ar      1 <0>        -0.0845
     24 C16         2.9784    5.3295    3.3753 C.ar      1 <0>        -0.1080
     25 C17         3.6733    5.2290    2.1520 C.ar      1 <0>        -0.0636
     26 C18         3.7312    4.0069    1.4929 C.ar      1 <0>        -0.1202
     27 C19         4.3406    6.4156    1.5769 C.2       1 <0>         0.5612
     28 O5          3.7287    7.1529    0.8175 O.co2     1 <0>        -0.6931
     29 O6          5.5044    6.6599    1.8606 O.co2     1 <0>        -0.6891
     30 C20         2.9139    6.6196    4.0863 C.2       1 <0>         0.5130
     31 O7          2.2498    6.7221    5.1082 O.co2     1 <0>        -0.7130
     32 O8          3.5245    7.5873    3.6541 O.co2     1 <0>        -0.6353
     33 H1         -0.8565    2.5642   -0.5008 H         1 <0>         0.1394
     34 H2          1.0709    3.2131    0.8838 H         1 <0>         0.1505
     35 H3         -0.9333    0.3403   -1.5490 H         1 <0>         0.1376
     36 H4          4.0144   -0.5238    0.1110 H         1 <0>         0.4256
     37 H5          2.6545   -4.6906    1.2841 H         1 <0>         0.1795
     38 H6          6.8607   -5.3289    1.6952 H         1 <0>         0.1725
     39 H7          7.2247   -2.9764    1.0617 H         1 <0>         0.1929
     40 H8          1.9264    2.1281    3.6587 H         1 <0>         0.1119
     41 H9          1.8192    4.2761    4.8454 H         1 <0>         0.1283
     42 H10         4.2649    3.9217    0.5579 H         1 <0>         0.1174
@<TRIPOS>BOND
     1    1    6 ar
     2    1    2 ar
     3    1   33 1
     4    2    3 ar
     5    2   34 1
     6    3    4 ar
     7    3   20 1
     8    4    5 ar
     9    4    8 1
    10    5    6 ar
    11    5    7 1
    12    6   35 1
    13    8    9 am
    14    8   36 1
    15    9   10 2
    16    9   11 1
    17   11   16 ar
    18   11   12 ar
    19   12   13 ar
    20   12   37 1
    21   13   14 ar
    22   13   17 1
    23   14   15 ar
    24   14   38 1
    25   15   16 ar
    26   15   39 1
    27   17   18 2
    28   17   19 1
    29   20   21 1
    30   21   26 ar
    31   21   22 ar
    32   22   23 ar
    33   22   40 1
    34   23   24 ar
    35   23   41 1
    36   24   25 ar
    37   24   30 1
    38   25   26 ar
    39   25   27 1
    40   26   42 1
    41   27   28 2
    42   27   29 1
    43   30   31 2
    44   30   32 1
@<TRIPOS>MOLECULE
CHEMBL206468
   24    24     0     0     0
SMALL
USER_CHARGES

@<TRIPOS>ATOM
      1 C1         -0.0178    1.4636    0.0101 C.3       1 <0>        -0.0027
      2 C2          1.4163    1.9970   -0.0007 C.3       1 <0>        -0.1025
      3 H1          1.9452    1.6372    0.8818 H         1 <0>         0.1130
      4 C3          2.1299    1.5015   -1.2619 C.3       1 <0>         0.1087
      5 H2          1.6316    1.9031   -2.1442 H         1 <0>         0.0826
      6 C4          2.0795   -0.0286   -1.2972 C.3       1 <0>         0.0566
      7 H3          2.6221   -0.4305   -0.4415 H         1 <0>         0.0904
      8 C5          0.6208   -0.4870   -1.2383 C.3       1 <0>        -0.0453
      9 N1          0.0021   -0.0041    0.0020 N.4       1 <0>        -0.5001
     10 O1          2.6797   -0.4981   -2.5061 O.3       1 <0>        -0.5386
     11 O2          3.4911    1.9360   -1.2427 O.3       1 <0>        -0.5460
     12 C6          1.3925    3.5268    0.0063 C.3       1 <0>         0.0845
     13 O3          0.8271    3.9888    1.2346 O.3       1 <0>        -0.5791
     14 H4         -0.5288    1.8147    0.9066 H         1 <0>         0.1519
     15 H5         -0.5458    1.8242   -0.8727 H         1 <0>         0.1354
     16 H6          0.0792   -0.0848   -2.0945 H         1 <0>         0.1410
     17 H7          0.5813   -1.5760   -1.2635 H         1 <0>         0.1400
     18 H8          0.5329   -0.3366    0.7931 H         1 <0>         0.4313
     19 H9          2.6826   -1.4609   -2.5957 H         1 <0>         0.4002
     20 H10         4.0040    1.6570   -2.0135 H         1 <0>         0.4025
     21 H11         2.4097    3.9064   -0.0910 H         1 <0>         0.0787
     22 H12         0.7898    3.8846   -0.8284 H         1 <0>         0.0585
     23 H13         0.7805    4.9518    1.3085 H         1 <0>         0.4005
     24 H14        -0.9428   -0.3526    0.0632 H         1 <0>         0.4384
@<TRIPOS>BOND
     1    1    9 1
     2    1    2 1
     3    1   14 1
     4    1   15 1
     5    2    3 1
     6    2    4 1
     7    2   12 1
     8    4    5 1
     9    4    6 1
    10    4   11 1
    11    6    7 1
    12    6    8 1
    13    6   10 1
    14    8    9 1
    15    8   16 1
    16    8   17 1
    17    9   18 1
    18    9   24 1
    19   10   19 1
    20   11   20 1
    21   12   13 1
    22   12   21 1
    23   12   22 1
    24   13   23 1
@<TRIPOS>MOLECULE
CHEMBL133603
   44    46     0     0     0
SMALL
USER_CHARGES

@<TRIPOS>ATOM
      1 C1         -0.7282    1.6693   -0.6501 C.3       1 <0>         0.0245
      2 O1         -0.6569    0.2725   -0.9434 O.3       1 <0>        -0.3080
      3 C2         -1.6643   -0.5077   -0.4754 C.ar      1 <0>         0.1614
      4 C3         -2.7157    0.0449    0.2510 C.ar      1 <0>        -0.2443
      5 C4         -3.7257   -0.7793    0.7130 C.ar      1 <0>         0.1403
      6 N1         -3.7056   -2.0737    0.4755 N.ar      1 <0>        -0.4769
      7 C5         -2.7229   -2.6434   -0.2127 C.ar      1 <0>         0.1251
      8 C6         -1.6745   -1.8791   -0.7150 C.ar      1 <0>        -0.1417
      9 C7         -2.7466   -4.1050   -0.4531 C.2       1 <0>         0.5686
     10 O2         -1.8501   -4.6320   -1.0822 O.2       1 <0>        -0.5072
     11 N2         -3.7622   -4.8503    0.0259 N.am      1 <0>        -0.6368
     12 C8         -3.8465   -6.2108   -0.2986 C.ar      1 <0>         0.0589
     13 C9         -5.0579   -6.7549   -0.7194 C.ar      1 <0>         0.1555
     14 C10        -5.1354   -8.1012   -1.0396 C.ar      1 <0>        -0.1872
     15 C11        -4.0126   -8.9019   -0.9414 C.ar      1 <0>        -0.0545
     16 C12        -2.8092   -8.3643   -0.5241 C.ar      1 <0>        -0.1890
     17 C13        -2.7211   -7.0199   -0.2073 C.ar      1 <0>         0.1388
     18 F1         -1.5427   -6.4959    0.1953 F         1 <0>        -0.1240
     19 O3         -6.1618   -5.9673   -0.8153 O.3       1 <0>        -0.2446
     20 C14        -7.3468   -6.5634   -1.0990 C.ar      1 <0>         0.0430
     21 C15        -8.0021   -7.3011   -0.1201 C.ar      1 <0>        -0.1644
     22 C16        -9.2080   -7.9119   -0.3973 C.ar      1 <0>        -0.0838
     23 C17        -9.7767   -7.7921   -1.6647 C.ar      1 <0>        -0.1106
     24 C18        -9.1144   -7.0443   -2.6603 C.ar      1 <0>        -0.0628
     25 C19        -7.9035   -6.4291   -2.3663 C.ar      1 <0>        -0.1184
     26 C20        -9.7076   -6.9110   -4.0073 C.2       1 <0>         0.5607
     27 O4         -9.4865   -7.7595   -4.8593 O.co2     1 <0>        -0.6846
     28 O5        -10.4195   -5.9523   -4.2696 O.co2     1 <0>        -0.6978
     29 C21       -11.0648   -8.4449   -1.9629 C.2       1 <0>         0.5134
     30 O6        -11.6918   -8.9972   -1.0698 O.co2     1 <0>        -0.7141
     31 O7        -11.5062   -8.4341   -3.1035 O.co2     1 <0>        -0.6360
     32 H1          0.1358    2.1755   -1.0807 H         1 <0>         0.1039
     33 H2         -1.6418    2.0839   -1.0762 H         1 <0>         0.0602
     34 H3         -0.7329    1.8139    0.4302 H         1 <0>         0.0587
     35 H4         -2.7420    1.1057    0.4520 H         1 <0>         0.1440
     36 H5         -4.5428   -0.3545    1.2771 H         1 <0>         0.1682
     37 H6         -0.8787   -2.3431   -1.2787 H         1 <0>         0.1567
     38 H7         -4.4347   -4.4450    0.5953 H         1 <0>         0.4248
     39 H8         -6.0736   -8.5251   -1.3656 H         1 <0>         0.1494
     40 H9         -4.0759   -9.9507   -1.1912 H         1 <0>         0.1376
     41 H10        -1.9350   -8.9940   -0.4487 H         1 <0>         0.1360
     42 H11        -7.5648   -7.3971    0.8627 H         1 <0>         0.1128
     43 H12        -9.7116   -8.4836    0.3682 H         1 <0>         0.1277
     44 H13        -7.3932   -5.8510   -3.1224 H         1 <0>         0.1167
@<TRIPOS>BOND
     1    1    2 1
     2    1   32 1
     3    1   33 1
     4    1   34 1
     5    2    3 1
     6    3    8 ar
     7    3    4 ar
     8    4    5 ar
     9    4   35 1
    10    5    6 ar
    11    5   36 1
    12    6    7 ar
    13    7    8 ar
    14    7    9 1
    15    8   37 1
    16    9   10 2
    17    9   11 am
    18   11   12 1
    19   11   38 1
    20   12   17 ar
    21   12   13 ar
    22   13   14 ar
    23   13   19 1
    24   14   15 ar
    25   14   39 1
    26   15   16 ar
    27   15   40 1
    28   16   17 ar
    29   16   41 1
    30   17   18 1
    31   19   20 1
    32   20   25 ar
    33   20   21 ar
    34   21   22 ar
    35   21   42 1
    36   22   23 ar
    37   22   43 1
    38   23   24 ar
    39   23   29 1
    40   24   25 ar
    41   24   26 1
    42   25   44 1
    43   26   27 2
    44   26   28 1
    45   29   30 2
    46   29   31 1
@<TRIPOS>MOLECULE
CHEMBL132191
   42    44     0     0     0
SMALL
USER_CHARGES

@<TRIPOS>ATOM
      1 C1          0.3434    1.0408   -0.9721 C.ar      1 <0>        -0.1465
      2 C2          1.4916    1.7998   -0.8381 C.ar      1 <0>        -0.0889
      3 C3          2.6288    1.2474   -0.2793 C.ar      1 <0>        -0.1682
      4 C4          2.6208   -0.0707    0.1487 C.ar      1 <0>         0.1162
      5 C5          1.4640   -0.8360    0.0143 C.ar      1 <0>         0.0973
      6 C6          0.3266   -0.2742   -0.5477 C.ar      1 <0>        -0.1060
      7 N1          1.4498   -2.1682    0.4443 N.am      1 <0>        -0.6233
      8 C7          0.5162   -3.0184   -0.0268 C.2       1 <0>         0.5666
      9 O1         -0.2581   -2.6535   -0.8896 O.2       1 <0>        -0.5103
     10 C8          0.4338   -4.3977    0.5070 C.ar      1 <0>         0.1020
     11 C9         -0.5299   -5.2737    0.0118 C.ar      1 <0>        -0.0544
     12 C10        -0.5947   -6.5609    0.5211 C.ar      1 <0>        -0.0105
     13 C11         0.3069   -6.9276    1.5083 C.ar      1 <0>        -0.0898
     14 C12         1.2391   -6.0044    1.9538 C.ar      1 <0>         0.1191
     15 N2          1.2821   -4.7905    1.4492 N.ar      1 <0>        -0.4152
     16 N3         -1.6038   -7.5222    0.0227 N.pl3     1 <0>         0.0299
     17 O2         -2.3838   -7.1878   -0.8384 O.2       1 <0>        -0.1381
     18 O3         -1.6481   -8.6419    0.4767 O.3       1 <0>        -0.1435
     19 O4          3.7386   -0.6158    0.6977 O.3       1 <0>        -0.2584
     20 C13         4.8270    0.1798    0.8486 C.ar      1 <0>         0.0463
     21 C14         5.8733    0.1009   -0.0628 C.ar      1 <0>        -0.1536
     22 C15         6.9856    0.9049    0.0809 C.ar      1 <0>        -0.0850
     23 C16         7.0653    1.8035    1.1441 C.ar      1 <0>        -0.1109
     24 C17         6.0050    1.8864    2.0704 C.ar      1 <0>        -0.0631
     25 C18         4.8883    1.0747    1.9112 C.ar      1 <0>        -0.1307
     26 C19         6.0789    2.8348    3.2013 C.2       1 <0>         0.5608
     27 O5          6.6086    2.4958    4.2498 O.co2     1 <0>        -0.6877
     28 O6          5.6104    3.9584    3.0884 O.co2     1 <0>        -0.6962
     29 C20         8.2532    2.6631    1.2995 C.2       1 <0>         0.5133
     30 O7          9.1420    2.6357    0.4597 O.co2     1 <0>        -0.7140
     31 O8          8.3498    3.4034    2.2683 O.co2     1 <0>        -0.6359
     32 H1         -0.5438    1.4782   -1.4056 H         1 <0>         0.1240
     33 H2          1.4999    2.8271   -1.1714 H         1 <0>         0.1266
     34 H3          3.5239    1.8430   -0.1765 H         1 <0>         0.1437
     35 H4         -0.5716   -0.8645   -0.6537 H         1 <0>         0.1556
     36 H5          2.1118   -2.4793    1.0813 H         1 <0>         0.4277
     37 H6         -1.2169   -4.9540   -0.7577 H         1 <0>         0.1800
     38 H7          0.2826   -7.9231    1.9264 H         1 <0>         0.1726
     39 H8          1.9426   -6.2867    2.7230 H         1 <0>         0.1931
     40 H9          5.8158   -0.5937   -0.8877 H         1 <0>         0.1127
     41 H10         7.7953    0.8378   -0.6306 H         1 <0>         0.1282
     42 H11         4.0709    1.1358    2.6145 H         1 <0>         0.1145
@<TRIPOS>BOND
     1    1    6 ar
     2    1    2 ar
     3    1   32 1
     4    2    3 ar
     5    2   33 1
     6    3    4 ar
     7    3   34 1
     8    4    5 ar
     9    4   19 1
    10    5    6 ar
    11    5    7 1
    12    6   35 1
    13    7    8 am
    14    7   36 1
    15    8    9 2
    16    8   10 1
    17   10   15 ar
    18   10   11 ar
    19   11   12 ar
    20   11   37 1
    21   12   13 ar
    22   12   16 1
    23   13   14 ar
    24   13   38 1
    25   14   15 ar
    26   14   39 1
    27   16   17 2
    28   16   18 1
    29   19   20 1
    30   20   25 ar
    31   20   21 ar
    32   21   22 ar
    33   21   40 1
    34   22   23 ar
    35   22   41 1
    36   23   24 ar
    37   23   29 1
    38   24   25 ar
    39   24   26 1
    40   25   42 1
    41   26   27 2
    42   26   28 1
    43   29   30 2
    44   29   31 1
@<TRIPOS>MOLECULE
CHEMBL134152
   40    42     0     0     0
SMALL
USER_CHARGES

@<TRIPOS>ATOM
      1 C1          0.3439    1.0408   -0.9727 C.ar      1 <0>        -0.1469
      2 C2          1.4921    1.7998   -0.8386 C.ar      1 <0>        -0.0919
      3 C3          2.6291    1.2474   -0.2791 C.ar      1 <0>        -0.1684
      4 C4          2.6209   -0.0706    0.1489 C.ar      1 <0>         0.1139
      5 C5          1.4641   -0.8360    0.0141 C.ar      1 <0>         0.1014
      6 C6          0.3268   -0.2741   -0.5481 C.ar      1 <0>        -0.1077
      7 N1          1.4498   -2.1681    0.4442 N.am      1 <0>        -0.6274
      8 C7          0.5160   -3.0183   -0.0268 C.2       1 <0>         0.5674
      9 O1         -0.2582   -2.6533   -0.8896 O.2       1 <0>        -0.5178
     10 C8          0.4335   -4.3975    0.5071 C.ar      1 <0>         0.1019
     11 C9         -0.5300   -5.2730    0.0120 C.ar      1 <0>        -0.1050
     12 C10        -0.5945   -6.5617    0.5218 C.ar      1 <0>        -0.0008
     13 C11         0.3086   -6.9281    1.5097 C.ar      1 <0>        -0.1443
     14 C12         1.2400   -6.0044    1.9541 C.ar      1 <0>         0.1195
     15 N2          1.2819   -4.7903    1.4494 N.ar      1 <0>        -0.4494
     16 Cl1        -1.7779   -7.6896   -0.0622 Cl        1 <0>        -0.0466
     17 O2          3.7384   -0.6156    0.6986 O.3       1 <0>        -0.2581
     18 C13         4.8267    0.1800    0.8500 C.ar      1 <0>         0.0479
     19 C14         5.8734    0.1013   -0.0609 C.ar      1 <0>        -0.1539
     20 C15         6.9855    0.9054    0.0834 C.ar      1 <0>        -0.0851
     21 C16         7.0650    1.8035    1.1469 C.ar      1 <0>        -0.1119
     22 C17         6.0042    1.8862    2.0728 C.ar      1 <0>        -0.0632
     23 C18         4.8875    1.0748    1.9128 C.ar      1 <0>        -0.1310
     24 C19         6.0776    2.8345    3.2039 C.2       1 <0>         0.5610
     25 O3          6.6066    2.4953    4.2527 O.co2     1 <0>        -0.6881
     26 O4          5.6095    3.9582    3.0909 O.co2     1 <0>        -0.6966
     27 C20         8.2530    2.6628    1.3032 C.2       1 <0>         0.5136
     28 O5          9.1422    2.6355    0.4639 O.co2     1 <0>        -0.7145
     29 O6          8.3492    3.4029    2.2722 O.co2     1 <0>        -0.6364
     30 H1         -0.5433    1.4783   -1.4064 H         1 <0>         0.1227
     31 H2          1.5007    2.8270   -1.1722 H         1 <0>         0.1254
     32 H3          3.5241    1.8431   -0.1759 H         1 <0>         0.1427
     33 H4         -0.5715   -0.8642   -0.6538 H         1 <0>         0.1556
     34 H5          2.1118   -2.4793    1.0812 H         1 <0>         0.4274
     35 H6         -1.2172   -4.9532   -0.7573 H         1 <0>         0.1606
     36 H7          0.2852   -7.9235    1.9281 H         1 <0>         0.1521
     37 H8          1.9441   -6.2860    2.7231 H         1 <0>         0.1769
     38 H9          5.8163   -0.5932   -0.8860 H         1 <0>         0.1127
     39 H10         7.7954    0.8387   -0.6280 H         1 <0>         0.1278
     40 H11         4.0698    1.1357    2.6157 H         1 <0>         0.1144
@<TRIPOS>BOND
     1    1    6 ar
     2    1    2 ar
     3    1   30 1
     4    2    3 ar
     5    2   31 1
     6    3    4 ar
     7    3   32 1
     8    4    5 ar
     9    4   17 1
    10    5    6 ar
    11    5    7 1
    12    6   33 1
    13    7    8 am
    14    7   34 1
    15    8    9 2
    16    8   10 1
    17   10   15 ar
    18   10   11 ar
    19   11   12 ar
    20   11   35 1
    21   12   13 ar
    22   12   16 1
    23   13   14 ar
    24   13   36 1
    25   14   15 ar
    26   14   37 1
    27   17   18 1
    28   18   23 ar
    29   18   19 ar
    30   19   20 ar
    31   19   38 1
    32   20   21 ar
    33   20   39 1
    34   21   22 ar
    35   21   27 1
    36   22   23 ar
    37   22   24 1
    38   23   40 1
    39   24   25 2
    40   24   26 1
    41   27   28 2
    42   27   29 1
@<TRIPOS>MOLECULE
CHEMBL117483
   55    57     0     0     0
SMALL
USER_CHARGES

@<TRIPOS>ATOM
      1 C1         -0.1934    1.4921   -0.2292 C.3       1 <0>        -0.1100
      2 C2         -0.0437   -0.0072   -0.2560 C.2       1 <0>         0.2559
      3 C3         -1.0537   -0.7659   -0.7154 C.2       1 <0>        -0.3082
      4 C4         -0.9510   -2.2633   -0.7718 C.3       1 <0>         0.0774
      5 C5          0.1852   -2.7529    0.0804 C.2       1 <0>        -0.2147
      6 C6          1.1529   -1.9131    0.5123 C.2       1 <0>         0.0639
      7 N1          1.1193   -0.5762    0.1820 N.pl3     1 <0>        -0.4863
      8 C7          2.3303    0.2392    0.3044 C.3       1 <0>         0.1371
      9 C8          3.2117    0.0129   -0.8968 C.ar      1 <0>        -0.0831
     10 C9          4.2953   -0.8406   -0.8080 C.ar      1 <0>        -0.0443
     11 C10         5.1044   -1.0482   -1.9106 C.ar      1 <0>        -0.0298
     12 C11         4.8290   -0.4015   -3.1025 C.ar      1 <0>        -0.1014
     13 C12         3.7458    0.4517   -3.1914 C.ar      1 <0>        -0.1147
     14 C13         2.9330    0.6550   -2.0900 C.ar      1 <0>        -0.0255
     15 Cl1         1.5679    1.7214   -2.2036 Cl        1 <0>        -0.0586
     16 Cl2         6.4657   -2.1198   -1.7988 Cl        1 <0>        -0.0666
     17 C14         2.2637   -2.4377    1.3452 C.2       1 <0>         0.5781
     18 O1          3.1403   -3.1192    0.8354 O.co2     1 <0>        -0.6593
     19 O2          2.3015   -2.1880    2.5406 O.co2     1 <0>        -0.7041
     20 C15         0.2457   -4.1681    0.4512 C.2       1 <0>         0.5234
     21 O3          1.1034   -4.5602    1.2317 O.co2     1 <0>        -0.6544
     22 O4         -0.5615   -4.9591   -0.0194 O.co2     1 <0>        -0.7057
     23 C16        -0.7209   -2.6910   -2.1984 C.ar      1 <0>        -0.0122
     24 C17         0.4004   -2.2544   -2.8788 C.ar      1 <0>        -0.0902
     25 C18         0.6116   -2.6467   -4.1872 C.ar      1 <0>        -0.1285
     26 C19        -0.2985   -3.4759   -4.8164 C.ar      1 <0>        -0.1324
     27 C20        -1.4198   -3.9131   -4.1372 C.ar      1 <0>        -0.1291
     28 C21        -1.6289   -3.5253   -2.8255 C.ar      1 <0>         0.0028
     29 Cl3        -3.0339   -4.0793   -1.9696 Cl        1 <0>        -0.0621
     30 C22        -2.2423   -0.1388   -1.1559 C.2       1 <0>         0.5273
     31 O5         -2.3415    1.0733   -1.1163 O.2       1 <0>        -0.5587
     32 O6         -3.2666   -0.8848   -1.6203 O.3       1 <0>        -0.3305
     33 C23        -4.4367   -0.1853   -2.0485 C.3       1 <0>         0.0816
     34 C24        -5.1268   -0.9783   -3.1602 C.3       1 <0>        -0.1448
     35 C25        -5.3952   -0.0235   -0.8670 C.3       1 <0>        -0.1669
     36 H1          0.7332    1.9435    0.1255 H         1 <0>         0.0591
     37 H2         -0.4122    1.8534   -1.2340 H         1 <0>         0.0914
     38 H3         -1.0095    1.7639    0.4403 H         1 <0>         0.0862
     39 H4         -1.8828   -2.7004   -0.4130 H         1 <0>         0.0889
     40 H5          2.0551    1.2924    0.3599 H         1 <0>         0.0998
     41 H6          2.8689   -0.0438    1.2088 H         1 <0>         0.1073
     42 H7          4.5105   -1.3451    0.1224 H         1 <0>         0.1629
     43 H8          5.4609   -0.5634   -3.9633 H         1 <0>         0.1353
     44 H9          3.5310    0.9567   -4.1215 H         1 <0>         0.1359
     45 H10         1.1114   -1.6064   -2.3880 H         1 <0>         0.1162
     46 H11         1.4876   -2.3050   -4.7185 H         1 <0>         0.1113
     47 H12        -0.1331   -3.7818   -5.8388 H         1 <0>         0.1146
     48 H13        -2.1308   -4.5605   -4.6289 H         1 <0>         0.1181
     49 H14        -4.1548    0.7981   -2.4249 H         1 <0>         0.0734
     50 H15        -5.4087   -1.9616   -2.7838 H         1 <0>         0.0664
     51 H16        -6.0193   -0.4447   -3.4869 H         1 <0>         0.0641
     52 H17        -4.4439   -1.0935   -4.0019 H         1 <0>         0.0609
     53 H18        -5.6772   -1.0068   -0.4906 H         1 <0>         0.0630
     54 H19        -4.9036    0.5415   -0.0750 H         1 <0>         0.0592
     55 H20        -6.2878    0.5101   -1.1937 H         1 <0>         0.0607
@<TRIPOS>BOND
     1    1    2 1
     2    1   36 1
     3    1   37 1
     4    1   38 1
     5    2    7 1
     6    2    3 2
     7    3    4 1
     8    3   30 1
     9    4    5 1
    10    4   23 1
    11    4   39 1
    12    5    6 2
    13    5   20 1
    14    6    7 1
    15    6   17 1
    16    7    8 1
    17    8    9 1
    18    8   40 1
    19    8   41 1
    20    9   14 ar
    21    9   10 ar
    22   10   11 ar
    23   10   42 1
    24   11   12 ar
    25   11   16 1
    26   12   13 ar
    27   12   43 1
    28   13   14 ar
    29   13   44 1
    30   14   15 1
    31   17   18 2
    32   17   19 1
    33   20   21 2
    34   20   22 1
    35   23   28 ar
    36   23   24 ar
    37   24   25 ar
    38   24   45 1
    39   25   26 ar
    40   25   46 1
    41   26   27 ar
    42   26   47 1
    43   27   28 ar
    44   27   48 1
    45   28   29 1
    46   30   31 2
    47   30   32 1
    48   32   33 1
    49   33   34 1
    50   33   35 1
    51   33   49 1
    52   34   50 1
    53   34   51 1
    54   34   52 1
    55   35   53 1
    56   35   54 1
    57   35   55 1
@<TRIPOS>MOLECULE
CHEMBL117483__1
   55    57     0     0     0
SMALL
USER_CHARGES

@<TRIPOS>ATOM
      1 C1         -0.0077    1.1723   -0.0844 C.3       1 <0>        -0.1109
      2 C2          0.1795   -0.3109    0.1056 C.2       1 <0>         0.2475
      3 C3         -0.8819   -1.0799    0.4038 C.2       1 <0>        -0.3067
      4 C4         -0.7472   -2.5613    0.6115 C.3       1 <0>         0.0762
      5 C5          0.5612   -3.0599    0.0671 C.2       1 <0>        -0.2207
      6 C6          1.5728   -2.2101   -0.2205 C.2       1 <0>         0.0757
      7 N1          1.4251   -0.8561   -0.0333 N.pl3     1 <0>        -0.4857
      8 C7          2.6093    0.0046    0.0222 C.3       1 <0>         0.1436
      9 C8          2.7383    0.5930    1.4036 C.ar      1 <0>        -0.0856
     10 C9          2.4330    1.9238    1.6192 C.ar      1 <0>        -0.0862
     11 C10         2.5514    2.4639    2.8872 C.ar      1 <0>        -0.0440
     12 C11         2.9756    1.6721    3.9397 C.ar      1 <0>        -0.0993
     13 C12         3.2808    0.3418    3.7242 C.ar      1 <0>        -0.1114
     14 C13         3.1569   -0.2000    2.4569 C.ar      1 <0>        -0.0415
     15 Cl1         3.5334   -1.8731    2.1875 Cl        1 <0>         0.0447
     16 Cl2         2.1685    4.1354    3.1579 Cl        1 <0>        -0.0808
     17 C14         2.8533   -2.7432   -0.7485 C.2       1 <0>         0.5807
     18 O1          3.0617   -2.7513   -1.9523 O.co2     1 <0>        -0.6995
     19 O2          3.6991   -3.1741    0.0208 O.co2     1 <0>        -0.6600
     20 C15         0.7449   -4.4953   -0.1562 C.2       1 <0>         0.5237
     21 O3          1.8367   -4.9258   -0.5046 O.co2     1 <0>        -0.6557
     22 O4         -0.1933   -5.2649    0.0054 O.co2     1 <0>        -0.7072
     23 C16        -0.8181   -2.8637    2.0862 C.ar      1 <0>        -0.0159
     24 C17         0.1083   -2.3111    2.9505 C.ar      1 <0>        -0.0932
     25 C18         0.0434   -2.5883    4.3031 C.ar      1 <0>        -0.1295
     26 C19        -0.9481   -3.4184    4.7924 C.ar      1 <0>        -0.1323
     27 C20        -1.8749   -3.9715    3.9293 C.ar      1 <0>        -0.1291
     28 C21        -1.8138   -3.6898    2.5759 C.ar      1 <0>        -0.0019
     29 Cl3        -2.9817   -4.3789    1.4919 Cl        1 <0>        -0.0603
     30 C22        -2.1565   -0.4793    0.5254 C.2       1 <0>         0.5266
     31 O5         -2.2823    0.7197    0.3605 O.2       1 <0>        -0.5576
     32 O6         -3.2332   -1.2360    0.8242 O.3       1 <0>        -0.3301
     33 C23        -4.4893   -0.5633    0.9315 C.3       1 <0>         0.0814
     34 C24        -5.6152   -1.5181    0.5295 C.3       1 <0>        -0.1462
     35 C25        -4.7007   -0.1049    2.3759 C.3       1 <0>        -0.1647
     36 H1          0.9490    1.6300   -0.3360 H         1 <0>         0.0534
     37 H2         -0.7183    1.3484   -0.8919 H         1 <0>         0.0921
     38 H3         -0.3892    1.6114    0.8375 H         1 <0>         0.0889
     39 H4         -1.5651   -3.0707    0.1020 H         1 <0>         0.0917
     40 H5          3.4975   -0.5843   -0.2062 H         1 <0>         0.1220
     41 H6          2.5087    0.8084   -0.7071 H         1 <0>         0.0826
     42 H7          2.1022    2.5419    0.7977 H         1 <0>         0.1397
     43 H8          3.0684    2.0939    4.9296 H         1 <0>         0.1335
     44 H9          3.6123   -0.2762    4.5456 H         1 <0>         0.1383
     45 H10         0.8833   -1.6629    2.5689 H         1 <0>         0.1221
     46 H11         0.7677   -2.1566    4.9780 H         1 <0>         0.1114
     47 H12        -0.9981   -3.6350    5.8493 H         1 <0>         0.1147
     48 H13        -2.6492   -4.6202    4.3115 H         1 <0>         0.1183
     49 H14        -4.4948    0.3036    0.2708 H         1 <0>         0.0739
     50 H15        -5.6097   -2.3849    1.1902 H         1 <0>         0.0663
     51 H16        -6.5734   -1.0049    0.6113 H         1 <0>         0.0647
     52 H17        -5.4646   -1.8446   -0.4995 H         1 <0>         0.0617
     53 H18        -4.6952   -0.9718    3.0366 H         1 <0>         0.0625
     54 H19        -3.8986    0.5753    2.6623 H         1 <0>         0.0578
     55 H20        -5.6589    0.4082    2.4577 H         1 <0>         0.0603
@<TRIPOS>BOND
     1    1    2 1
     2    1   36 1
     3    1   37 1
     4    1   38 1
     5    2    7 1
     6    2    3 2
     7    3    4 1
     8    3   30 1
     9    4    5 1
    10    4   23 1
    11    4   39 1
    12    5    6 2
    13    5   20 1
    14    6    7 1
    15    6   17 1
    16    7    8 1
    17    8    9 1
    18    8   40 1
    19    8   41 1
    20    9   14 ar
    21    9   10 ar
    22   10   11 ar
    23   10   42 1
    24   11   12 ar
    25   11   16 1
    26   12   13 ar
    27   12   43 1
    28   13   14 ar
    29   13   44 1
    30   14   15 1
    31   17   18 2
    32   17   19 1
    33   20   21 2
    34   20   22 1
    35   23   28 ar
    36   23   24 ar
    37   24   25 ar
    38   24   45 1
    39   25   26 ar
    40   25   46 1
    41   26   27 ar
    42   26   47 1
    43   27   28 ar
    44   27   48 1
    45   28   29 1
    46   30   31 2
    47   30   32 1
    48   32   33 1
    49   33   34 1
    50   33   35 1
    51   33   49 1
    52   34   50 1
    53   34   51 1
    54   34   52 1
    55   35   53 1
    56   35   54 1
    57   35   55 1
@<TRIPOS>MOLECULE
CHEMBL334272
   55    57     0     0     0
SMALL
USER_CHARGES

@<TRIPOS>ATOM
      1 C1          0.1866    1.6360   -0.0409 C.3       1 <0>        -0.1148
      2 C2          0.0446    0.1367    0.0158 C.2       1 <0>         0.2461
      3 C3         -1.1820   -0.4129    0.0218 C.2       1 <0>        -0.3041
      4 C4         -1.3776   -1.9014    0.0677 C.3       1 <0>         0.0769
      5 C5         -0.1137   -2.5929    0.4938 C.2       1 <0>        -0.2155
      6 C6          1.0786   -1.9559    0.4702 C.2       1 <0>         0.0646
      7 N1          1.1649   -0.6453    0.0548 N.pl3     1 <0>        -0.4897
      8 C7          2.4597   -0.0863   -0.3416 C.3       1 <0>         0.1420
      9 C8          2.6079   -0.1746   -1.8387 C.ar      1 <0>        -0.0838
     10 C9          3.1682   -1.3009   -2.4124 C.ar      1 <0>        -0.0626
     11 C10         3.3050   -1.3830   -3.7852 C.ar      1 <0>        -0.1019
     12 C11         2.8808   -0.3379   -4.5863 C.ar      1 <0>        -0.0274
     13 C12         2.3193    0.7897   -4.0119 C.ar      1 <0>        -0.0386
     14 C13         2.1783    0.8680   -2.6379 C.ar      1 <0>        -0.0881
     15 Cl1         1.7870    2.1023   -5.0158 Cl        1 <0>        -0.0665
     16 Cl2         3.0529   -0.4402   -6.3107 Cl        1 <0>        -0.0674
     17 C14         2.3059   -2.6769    0.8907 C.2       1 <0>         0.5827
     18 O1          2.9578   -3.3037    0.0692 O.co2     1 <0>        -0.6882
     19 O2          2.6642   -2.6436    2.0583 O.co2     1 <0>        -0.6816
     20 C15        -0.1745   -3.9848    0.9441 C.2       1 <0>         0.5231
     21 O3          0.8258   -4.5257    1.3973 O.co2     1 <0>        -0.6563
     22 O4         -1.2257   -4.6076    0.8675 O.co2     1 <0>        -0.7033
     23 C16        -1.7739   -2.3919   -1.3011 C.ar      1 <0>        -0.0133
     24 C17        -0.9264   -2.2003   -2.3762 C.ar      1 <0>        -0.0923
     25 C18        -1.2897   -2.6501   -3.6317 C.ar      1 <0>        -0.1273
     26 C19        -2.5009   -3.2919   -3.8129 C.ar      1 <0>        -0.1315
     27 C20        -3.3490   -3.4840   -2.7389 C.ar      1 <0>        -0.1284
     28 C21        -2.9833   -3.0389   -1.4807 C.ar      1 <0>         0.0028
     29 Cl3        -4.0451   -3.2857   -0.1297 Cl        1 <0>        -0.0619
     30 C22        -2.3163    0.4310   -0.0156 C.2       1 <0>         0.5272
     31 O5         -2.1749    1.6390   -0.0526 O.2       1 <0>        -0.5572
     32 O6         -3.5554   -0.1034   -0.0103 O.3       1 <0>        -0.3302
     33 C23        -4.6553    0.8081   -0.0495 C.3       1 <0>         0.0816
     34 C24        -5.0343    1.0876   -1.5052 C.3       1 <0>        -0.1650
     35 C25        -5.8520    0.1950    0.6804 C.3       1 <0>        -0.1465
     36 H1          1.2414    1.9036    0.0224 H         1 <0>         0.0560
     37 H2         -0.2261    2.0047   -0.9800 H         1 <0>         0.0882
     38 H3         -0.3526    2.0839    0.7937 H         1 <0>         0.0963
     39 H4         -2.1717   -2.1371    0.7761 H         1 <0>         0.0901
     40 H5          2.5151    0.9573   -0.0320 H         1 <0>         0.0905
     41 H6          3.2606   -0.6501    0.1366 H         1 <0>         0.1123
     42 H7          3.4995   -2.1170   -1.7872 H         1 <0>         0.1720
     43 H8          3.7435   -2.2628   -4.2325 H         1 <0>         0.1419
     44 H9          1.7367    1.7456   -2.1895 H         1 <0>         0.1386
     45 H10         0.0196   -1.6988   -2.2353 H         1 <0>         0.1158
     46 H11        -0.6275   -2.5000   -4.4714 H         1 <0>         0.1121
     47 H12        -2.7844   -3.6428   -4.7942 H         1 <0>         0.1150
     48 H13        -4.2952   -3.9850   -2.8806 H         1 <0>         0.1185
     49 H14        -4.3715    1.7410    0.4377 H         1 <0>         0.0742
     50 H15        -4.1817    1.5244   -2.0252 H         1 <0>         0.0582
     51 H16        -5.3180    0.1547   -1.9924 H         1 <0>         0.0628
     52 H17        -5.8732    1.7829   -1.5351 H         1 <0>         0.0606
     53 H18        -5.5820   -0.0042    1.7175 H         1 <0>         0.0616
     54 H19        -6.6910    0.8903    0.6505 H         1 <0>         0.0651
     55 H20        -6.1357   -0.7379    0.1933 H         1 <0>         0.0665
@<TRIPOS>BOND
     1    1    2 1
     2    1   36 1
     3    1   37 1
     4    1   38 1
     5    2    7 1
     6    2    3 2
     7    3    4 1
     8    3   30 1
     9    4    5 1
    10    4   23 1
    11    4   39 1
    12    5    6 2
    13    5   20 1
    14    6    7 1
    15    6   17 1
    16    7    8 1
    17    8    9 1
    18    8   40 1
    19    8   41 1
    20    9   14 ar
    21    9   10 ar
    22   10   11 ar
    23   10   42 1
    24   11   12 ar
    25   11   43 1
    26   12   13 ar
    27   12   16 1
    28   13   14 ar
    29   13   15 1
    30   14   44 1
    31   17   18 2
    32   17   19 1
    33   20   21 2
    34   20   22 1
    35   23   28 ar
    36   23   24 ar
    37   24   25 ar
    38   24   45 1
    39   25   26 ar
    40   25   46 1
    41   26   27 ar
    42   26   47 1
    43   27   28 ar
    44   27   48 1
    45   28   29 1
    46   30   31 2
    47   30   32 1
    48   32   33 1
    49   33   34 1
    50   33   35 1
    51   33   49 1
    52   34   50 1
    53   34   51 1
    54   34   52 1
    55   35   53 1
    56   35   54 1
    57   35   55 1
@<TRIPOS>MOLECULE
CHEMBL334272__1
   55    57     0     0     0
SMALL
USER_CHARGES

@<TRIPOS>ATOM
      1 C1          0.0571    1.4984    0.0608 C.3       1 <0>        -0.1143
      2 C2          0.0401   -0.0080    0.0216 C.2       1 <0>         0.2452
      3 C3         -1.1295   -0.6607    0.1344 C.2       1 <0>        -0.3047
      4 C4         -1.1996   -2.1608    0.1101 C.3       1 <0>         0.0754
      5 C5          0.0727   -2.7459   -0.4341 C.2       1 <0>        -0.2152
      6 C6          1.2025   -2.0088   -0.5262 C.2       1 <0>         0.0638
      7 N1          1.2136   -0.6913   -0.1337 N.pl3     1 <0>        -0.4873
      8 C7          2.4896   -0.0190    0.1235 C.3       1 <0>         0.1407
      9 C8          2.7946   -0.0676    1.5985 C.ar      1 <0>        -0.0847
     10 C9          2.3518    0.9449    2.4294 C.ar      1 <0>        -0.0935
     11 C10         2.6313    0.9018    3.7822 C.ar      1 <0>        -0.1107
     12 C11         3.3540   -0.1553    4.3058 C.ar      1 <0>        -0.0294
     13 C12         3.7970   -1.1694    3.4740 C.ar      1 <0>        -0.0296
     14 C13         3.5119   -1.1272    2.1208 C.ar      1 <0>        -0.0604
     15 Cl1         4.7046   -2.4963    4.1293 Cl        1 <0>        -0.0525
     16 Cl2         3.7058   -0.2098    6.0050 Cl        1 <0>        -0.0678
     17 C14         2.4416   -2.6263   -1.0612 C.2       1 <0>         0.5802
     18 O1          2.7232   -2.5049   -2.2439 O.co2     1 <0>        -0.6944
     19 O2          3.1800   -3.2560   -0.3189 O.co2     1 <0>        -0.6727
     20 C15         0.0897   -4.1426   -0.8731 C.2       1 <0>         0.5228
     21 O3          1.1409   -4.6599   -1.2281 O.co2     1 <0>        -0.6543
     22 O4         -0.9474   -4.7930   -0.8852 O.co2     1 <0>        -0.7052
     23 C16        -1.4196   -2.6697    1.5115 C.ar      1 <0>        -0.0166
     24 C17        -0.4988   -2.3858    2.5026 C.ar      1 <0>        -0.0915
     25 C18        -0.7005   -2.8524    3.7879 C.ar      1 <0>        -0.1264
     26 C19        -1.8233   -3.6033    4.0832 C.ar      1 <0>        -0.1315
     27 C20        -2.7446   -3.8877    3.0932 C.ar      1 <0>        -0.1277
     28 C21        -2.5460   -3.4161    1.8075 C.ar      1 <0>        -0.0020
     29 Cl3        -3.7062   -3.7674    0.5649 Cl        1 <0>        -0.0597
     30 C22        -2.3234    0.0833    0.2799 C.2       1 <0>         0.5275
     31 O5         -2.2837    1.2993    0.3018 O.2       1 <0>        -0.5585
     32 O6         -3.5067   -0.5553    0.3945 O.3       1 <0>        -0.3298
     33 C23        -4.6721    0.2591    0.5384 C.3       1 <0>         0.0817
     34 C24        -5.2436    0.5806   -0.8439 C.3       1 <0>        -0.1671
     35 C25        -5.7206   -0.4920    1.3616 C.3       1 <0>        -0.1452
     36 H1          1.0881    1.8510    0.0333 H         1 <0>         0.0560
     37 H2         -0.4840    1.8903   -0.8004 H         1 <0>         0.0900
     38 H3         -0.4206    1.8434    0.9778 H         1 <0>         0.0942
     39 H4         -2.0344   -2.4708   -0.5184 H         1 <0>         0.0931
     40 H5          3.2833   -0.5224   -0.4284 H         1 <0>         0.1114
     41 H6          2.4246    1.0199   -0.2000 H         1 <0>         0.0924
     42 H7          1.7876    1.7703    2.0210 H         1 <0>         0.1358
     43 H8          2.2857    1.6934    4.4305 H         1 <0>         0.1370
     44 H9          3.8537   -1.9200    1.4720 H         1 <0>         0.1729
     45 H10         0.3786   -1.7996    2.2725 H         1 <0>         0.1159
     46 H11         0.0194   -2.6306    4.5619 H         1 <0>         0.1125
     47 H12        -1.9802   -3.9679    5.0876 H         1 <0>         0.1155
     48 H13        -3.6214   -4.4745    3.3238 H         1 <0>         0.1190
     49 H14        -4.4071    1.1862    1.0467 H         1 <0>         0.0738
     50 H15        -4.4966    1.1156   -1.4304 H         1 <0>         0.0592
     51 H16        -5.5087   -0.3465   -1.3521 H         1 <0>         0.0633
     52 H17        -6.1325    1.2017   -0.7341 H         1 <0>         0.0611
     53 H18        -5.3135   -0.7211    2.3464 H         1 <0>         0.0610
     54 H19        -6.6095    0.1292    1.4714 H         1 <0>         0.0645
     55 H20        -5.9857   -1.4191    0.8534 H         1 <0>         0.0666
@<TRIPOS>BOND
     1    1    2 1
     2    1   36 1
     3    1   37 1
     4    1   38 1
     5    2    7 1
     6    2    3 2
     7    3    4 1
     8    3   30 1
     9    4    5 1
    10    4   23 1
    11    4   39 1
    12    5    6 2
    13    5   20 1
    14    6    7 1
    15    6   17 1
    16    7    8 1
    17    8    9 1
    18    8   40 1
    19    8   41 1
    20    9   14 ar
    21    9   10 ar
    22   10   11 ar
    23   10   42 1
    24   11   12 ar
    25   11   43 1
    26   12   13 ar
    27   12   16 1
    28   13   14 ar
    29   13   15 1
    30   14   44 1
    31   17   18 2
    32   17   19 1
    33   20   21 2
    34   20   22 1
    35   23   28 ar
    36   23   24 ar
    37   24   25 ar
    38   24   45 1
    39   25   26 ar
    40   25   46 1
    41   26   27 ar
    42   26   47 1
    43   27   28 ar
    44   27   48 1
    45   28   29 1
    46   30   31 2
    47   30   32 1
    48   32   33 1
    49   33   34 1
    50   33   35 1
    51   33   49 1
    52   34   50 1
    53   34   51 1
    54   34   52 1
    55   35   53 1
    56   35   54 1
    57   35   55 1
@<TRIPOS>MOLECULE
CHEMBL490175
   42    45     0     0     0
SMALL
USER_CHARGES

@<TRIPOS>ATOM
      1 C1         -0.0164    1.3570    0.0095 C.ar      1 <0>        -0.1000
      2 C2          1.1682    2.0912    0.0021 C.ar      1 <0>        -0.1151
      3 C3          2.3779    1.4680   -0.0127 C.ar      1 <0>        -0.0947
      4 C4          2.4369    0.0628   -0.0208 C.ar      1 <0>        -0.0605
      5 C5          3.6674   -0.6116   -0.0356 C.ar      1 <0>        -0.0346
      6 C6          3.6851   -1.9949   -0.0428 C.ar      1 <0>        -0.0361
      7 C7          2.4837   -2.7244   -0.0359 C.ar      1 <0>        -0.0862
      8 C8          1.2837   -2.0896   -0.0216 C.ar      1 <0>        -0.0977
      9 C9          1.2316   -0.6838   -0.0134 C.ar      1 <0>        -0.0313
     10 C10         0.0021   -0.0041    0.0020 C.ar      1 <0>        -0.1115
     11 C11         4.9794   -2.7125   -0.0584 C.2       1 <0>         0.1968
     12 N1          6.1883   -2.2117   -0.0612 N.2       1 <0>        -0.2957
     13 O1          7.3239   -3.0326   -0.0909 O.3       1 <0>        -0.1288
     14 C12         7.0731   -4.3977    0.2894 C.3       1 <0>         0.3143
     15 S1          5.2746   -4.4781   -0.0701 S.3       1 <0>        -0.2146
     16 C13         7.3147   -4.6186    1.7713 C.3       1 <0>         0.0596
     17 H1          6.6674   -3.9578    2.3479 H         1 <0>         0.0848
     18 C14         7.0016   -6.0782    2.1245 C.3       1 <0>         0.0400
     19 H2          5.9398   -6.2712    1.9712 H         1 <0>         0.0895
     20 C15         7.8264   -6.9953    1.2158 C.3       1 <0>         0.0914
     21 H3          8.8881   -6.8232    1.3927 H         1 <0>         0.0900
     22 C16         7.4960   -6.6894   -0.2474 C.3       1 <0>         0.1010
     23 H4          6.4392   -6.8839   -0.4300 H         1 <0>         0.0915
     24 O2          7.7827   -5.3137   -0.5202 O.3       1 <0>        -0.3020
     25 C17         8.3439   -7.5788   -1.1590 C.3       1 <0>         0.0924
     26 O3          7.9532   -7.3770   -2.5187 O.3       1 <0>        -0.5641
     27 O4          7.5103   -8.3593    1.5016 O.3       1 <0>        -0.5492
     28 O5          7.3404   -6.3234    3.4909 O.3       1 <0>        -0.5491
     29 O6          8.6811   -4.3353    2.0792 O.3       1 <0>        -0.5279
     30 H5         -0.9634    1.8759    0.0259 H         1 <0>         0.1284
     31 H6          1.1256    3.1703    0.0080 H         1 <0>         0.1289
     32 H7          3.2880    2.0495   -0.0187 H         1 <0>         0.1332
     33 H8          4.5931   -0.0553   -0.0417 H         1 <0>         0.1434
     34 H9          2.5155   -3.8039   -0.0425 H         1 <0>         0.1324
     35 H10         0.3690   -2.6639   -0.0164 H         1 <0>         0.1398
     36 H11        -0.9244   -0.5590    0.0082 H         1 <0>         0.1328
     37 H12         9.3964   -7.3211   -1.0413 H         1 <0>         0.0625
     38 H13         8.1933   -8.6241   -0.8890 H         1 <0>         0.0847
     39 H14         8.4503   -7.9103   -3.1540 H         1 <0>         0.3871
     40 H15         7.6930   -8.6226    2.4139 H         1 <0>         0.3954
     41 H16         6.8599   -5.7690    4.1208 H         1 <0>         0.3901
     42 H17         8.9074   -4.4557    3.0116 H         1 <0>         0.3897
@<TRIPOS>BOND
     1    1   10 ar
     2    1    2 ar
     3    1   30 1
     4    2    3 ar
     5    2   31 1
     6    3    4 ar
     7    3   32 1
     8    4    9 ar
     9    4    5 ar
    10    5    6 ar
    11    5   33 1
    12    6    7 ar
    13    6   11 1
    14    7    8 ar
    15    7   34 1
    16    8    9 ar
    17    8   35 1
    18    9   10 ar
    19   10   36 1
    20   11   15 1
    21   11   12 2
    22   12   13 1
    23   13   14 1
    24   14   24 1
    25   14   15 1
    26   14   16 1
    27   16   17 1
    28   16   18 1
    29   16   29 1
    30   18   19 1
    31   18   20 1
    32   18   28 1
    33   20   21 1
    34   20   22 1
    35   20   27 1
    36   22   23 1
    37   22   24 1
    38   22   25 1
    39   25   26 1
    40   25   37 1
    41   25   38 1
    42   26   39 1
    43   27   40 1
    44   28   41 1
    45   29   42 1
@<TRIPOS>MOLECULE
CHEMBL422632
   41    44     0     0     0
SMALL
USER_CHARGES

@<TRIPOS>ATOM
      1 C1         -0.0178    1.4608    0.0101 C.3       1 <0>         0.0664
      2 N1          0.0021   -0.0041    0.0020 N.am      1 <0>        -0.5518
      3 C2         -1.2031   -0.7117    0.0039 C.ar      1 <0>         0.1662
      4 C3         -2.3946   -0.0532   -0.2745 C.ar      1 <0>        -0.1532
      5 C4         -3.5833   -0.7556   -0.2871 C.ar      1 <0>        -0.0835
      6 C5         -3.5891   -2.1133   -0.0240 C.ar      1 <0>        -0.1412
      7 C6         -2.4060   -2.7702    0.2593 C.ar      1 <0>        -0.0793
      8 C7         -1.2145   -2.0714    0.2799 C.ar      1 <0>        -0.1376
      9 C8          0.0693   -2.7829    0.6224 C.3       1 <0>        -0.0882
     10 C9          1.2289   -2.1513   -0.1482 C.3       1 <0>         0.1391
     11 C10         1.1792   -0.6529   -0.0127 C.2       1 <0>         0.5042
     12 O1          2.2121   -0.0251    0.0880 O.2       1 <0>        -0.4934
     13 N2          1.1257   -2.5112   -1.5645 N.am      1 <0>        -0.7185
     14 C11         2.2289   -2.5239   -2.3387 C.2       1 <0>         0.5840
     15 O2          3.3103   -2.2366   -1.8614 O.2       1 <0>        -0.4939
     16 C12         2.1253   -2.8850   -3.7601 C.2       1 <0>         0.0154
     17 C13         3.1621   -2.9393   -4.6367 C.2       1 <0>        -0.0926
     18 C14         2.6425   -3.3252   -5.8958 C.ar      1 <0>        -0.1185
     19 C15         3.2254   -3.5413   -7.1516 C.ar      1 <0>        -0.0417
     20 C16         2.4460   -3.9172   -8.2062 C.ar      1 <0>        -0.1400
     21 C17         1.0751   -4.0887   -8.0476 C.ar      1 <0>         0.0006
     22 C18         0.4790   -3.8822   -6.8226 C.ar      1 <0>        -0.1250
     23 C19         1.2541   -3.4981   -5.7320 C.ar      1 <0>         0.1262
     24 N3          0.9589   -3.2292   -4.4164 N.pl3     1 <0>        -0.5759
     25 H1          0.0767   -3.2716   -4.0154 H         1 <0>         0.4183
     26 Cl1         0.1056   -4.5671   -9.4059 Cl        1 <0>        -0.0607
     27 H2          1.0048    1.8381    0.0023 H         1 <0>         0.0967
     28 H3         -0.5450    1.8219   -0.8730 H         1 <0>         0.0701
     29 H4         -0.5280    1.8123    0.9069 H         1 <0>         0.0725
     30 H5         -2.3909    1.0070   -0.4806 H         1 <0>         0.1303
     31 H6         -4.5098   -0.2440   -0.5023 H         1 <0>         0.1297
     32 H7         -4.5196   -2.6614   -0.0396 H         1 <0>         0.1279
     33 H8         -2.4132   -3.8306    0.4644 H         1 <0>         0.1313
     34 H9          0.2563   -2.6984    1.6929 H         1 <0>         0.1047
     35 H10        -0.0158   -3.8352    0.3516 H         1 <0>         0.1023
     36 H11         2.1733   -2.5216    0.2508 H         1 <0>         0.1341
     37 H12         0.2634   -2.7402   -1.9452 H         1 <0>         0.4013
     38 H13         4.1970   -2.7260   -4.4131 H         1 <0>         0.1618
     39 H14         4.2891   -3.4102   -7.2844 H         1 <0>         0.1387
     40 H15         2.8977   -4.0828   -9.1731 H         1 <0>         0.1380
     41 H16        -0.5864   -4.0175   -6.7090 H         1 <0>         0.1349
@<TRIPOS>BOND
     1    1    2 1
     2    1   27 1
     3    1   28 1
     4    1   29 1
     5    2   11 am
     6    2    3 1
     7    3    8 ar
     8    3    4 ar
     9    4    5 ar
    10    4   30 1
    11    5    6 ar
    12    5   31 1
    13    6    7 ar
    14    6   32 1
    15    7    8 ar
    16    7   33 1
    17    8    9 1
    18    9   10 1
    19    9   34 1
    20    9   35 1
    21   10   11 1
    22   10   13 1
    23   10   36 1
    24   11   12 2
    25   13   14 am
    26   13   37 1
    27   14   15 2
    28   14   16 1
    29   16   24 1
    30   16   17 2
    31   17   18 1
    32   17   38 1
    33   18   23 ar
    34   18   19 ar
    35   19   20 ar
    36   19   39 1
    37   20   21 ar
    38   20   40 1
    39   21   22 ar
    40   21   26 1
    41   22   23 ar
    42   22   41 1
    43   23   24 1
    44   24   25 1
@<TRIPOS>MOLECULE
CHEMBL422632__1
   41    44     0     0     0
SMALL
USER_CHARGES

@<TRIPOS>ATOM
      1 C1         -0.0178    1.4608    0.0101 C.3       1 <0>         0.0664
      2 N1          0.0021   -0.0041    0.0020 N.am      1 <0>        -0.5519
      3 C2         -1.2031   -0.7117    0.0039 C.ar      1 <0>         0.1663
      4 C3         -2.3917   -0.0565    0.3017 C.ar      1 <0>        -0.1531
      5 C4         -3.5803   -0.7591    0.3180 C.ar      1 <0>        -0.0835
      6 C5         -3.5888   -2.1137    0.0393 C.ar      1 <0>        -0.1413
      7 C6         -2.4084   -2.7674   -0.2624 C.ar      1 <0>        -0.0792
      8 C7         -1.2173   -2.0681   -0.2876 C.ar      1 <0>        -0.1377
      9 C8          0.0630   -2.7755   -0.6510 C.3       1 <0>        -0.0884
     10 C9          1.2302   -2.1528    0.1153 C.3       1 <0>         0.1391
     11 C10         1.1792   -0.6529   -0.0127 C.2       1 <0>         0.5042
     12 O1          2.2100   -0.0239   -0.1263 O.2       1 <0>        -0.4934
     13 N2          1.1410   -2.5290    1.5283 N.am      1 <0>        -0.7178
     14 C11         2.2518   -2.5506    2.2913 C.2       1 <0>         0.5840
     15 O2          3.3285   -2.2578    1.8066 O.2       1 <0>        -0.4941
     16 C12         2.1623   -2.9281    3.7095 C.2       1 <0>         0.0155
     17 C13         3.2060   -2.9811    4.5780 C.2       1 <0>        -0.0926
     18 C14         2.6994   -3.3849    5.8368 C.ar      1 <0>        -0.1185
     19 C15         3.2935   -3.6080    7.0861 C.ar      1 <0>        -0.0417
     20 C16         2.5256   -4.0024    8.1422 C.ar      1 <0>        -0.1400
     21 C17         1.1553   -4.1859    7.9918 C.ar      1 <0>         0.0006
     22 C18         0.5483   -3.9727    6.7732 C.ar      1 <0>        -0.1250
     23 C19         1.3116   -3.5699    5.6812 C.ar      1 <0>         0.1262
     24 N3          1.0024   -3.2799    4.3732 N.pl3     1 <0>        -0.5759
     25 H1          0.1164   -3.3183    3.9804 H         1 <0>         0.4184
     26 Cl1         0.2007   -4.6888    9.3517 Cl        1 <0>        -0.0606
     27 H2          1.0048    1.8381    0.0023 H         1 <0>         0.0966
     28 H3         -0.5450    1.8219   -0.8730 H         1 <0>         0.0723
     29 H4         -0.5280    1.8123    0.9069 H         1 <0>         0.0702
     30 H5         -2.3859    1.0011    0.5206 H         1 <0>         0.1303
     31 H6         -4.5045   -0.2502    0.5489 H         1 <0>         0.1297
     32 H7         -4.5191   -2.6620    0.0577 H         1 <0>         0.1279
     33 H8         -2.4177   -3.8254   -0.4789 H         1 <0>         0.1313
     34 H9         -0.0195   -3.8310   -0.3915 H         1 <0>         0.1023
     35 H10         0.2394   -2.6787   -1.7223 H         1 <0>         0.1047
     36 H11         2.1706   -2.5184   -0.2972 H         1 <0>         0.1339
     37 H12         0.2825   -2.7625    1.9148 H         1 <0>         0.4014
     38 H13         4.2371   -2.7559    4.3490 H         1 <0>         0.1618
     39 H14         4.3569   -3.4684    7.2123 H         1 <0>         0.1387
     40 H15         2.9860   -4.1741    9.1040 H         1 <0>         0.1380
     41 H16        -0.5165   -4.1181    6.6657 H         1 <0>         0.1349
@<TRIPOS>BOND
     1    1    2 1
     2    1   27 1
     3    1   28 1
     4    1   29 1
     5    2   11 am
     6    2    3 1
     7    3    8 ar
     8    3    4 ar
     9    4    5 ar
    10    4   30 1
    11    5    6 ar
    12    5   31 1
    13    6    7 ar
    14    6   32 1
    15    7    8 ar
    16    7   33 1
    17    8    9 1
    18    9   10 1
    19    9   34 1
    20    9   35 1
    21   10   11 1
    22   10   13 1
    23   10   36 1
    24   11   12 2
    25   13   14 am
    26   13   37 1
    27   14   15 2
    28   14   16 1
    29   16   24 1
    30   16   17 2
    31   17   18 1
    32   17   38 1
    33   18   23 ar
    34   18   19 ar
    35   19   20 ar
    36   19   39 1
    37   20   21 ar
    38   20   40 1
    39   21   22 ar
    40   21   26 1
    41   22   23 ar
    42   22   41 1
    43   23   24 1
    44   24   25 1
@<TRIPOS>MOLECULE
CHEMBL326810
   55    57     0     0     0
SMALL
USER_CHARGES

@<TRIPOS>ATOM
      1 C1         -0.1989    1.4912   -0.2290 C.3       1 <0>        -0.1097
      2 C2         -0.0461   -0.0078   -0.2556 C.2       1 <0>         0.2578
      3 C3         -1.0549   -0.7687   -0.7141 C.2       1 <0>        -0.3108
      4 C4         -0.9491   -2.2659   -0.7703 C.3       1 <0>         0.0783
      5 C5          0.1888   -2.7530    0.0812 C.2       1 <0>        -0.2170
      6 C6          1.1550   -1.9111    0.5122 C.2       1 <0>         0.0660
      7 N1          1.1184   -0.5743    0.1816 N.pl3     1 <0>        -0.4854
      8 C7          2.3277    0.2436    0.3029 C.3       1 <0>         0.1365
      9 C8          3.2086    0.0191   -0.8991 C.ar      1 <0>        -0.0949
     10 C9          4.2939   -0.8326   -0.8113 C.ar      1 <0>        -0.0529
     11 C10         5.1020   -1.0386   -1.9137 C.ar      1 <0>        -0.1180
     12 C11         4.8253   -0.3931   -3.1046 C.ar      1 <0>        -0.1102
     13 C12         3.7406    0.4585   -3.1936 C.ar      1 <0>        -0.1285
     14 C13         2.9280    0.6608   -2.0920 C.ar      1 <0>        -0.0270
     15 Cl1         1.5614    1.7253   -2.2048 Cl        1 <0>        -0.0696
     16 C14         2.2676   -2.4332    1.3443 C.2       1 <0>         0.5803
     17 O1          3.1447   -3.1137    0.8342 O.co2     1 <0>        -0.6627
     18 O2          2.3063   -2.1824    2.5395 O.co2     1 <0>        -0.7050
     19 C15         0.2525   -4.1679    0.4522 C.2       1 <0>         0.5237
     20 O3          1.1114   -4.5581    1.2324 O.co2     1 <0>        -0.6557
     21 O4         -0.5532   -4.9609   -0.0178 O.co2     1 <0>        -0.7059
     22 C16        -0.7192   -2.6935   -2.1970 C.ar      1 <0>        -0.0116
     23 C17         0.4007   -2.2547   -2.8783 C.ar      1 <0>        -0.0896
     24 C18         0.6117   -2.6468   -4.1868 C.ar      1 <0>        -0.1285
     25 C19        -0.2971   -3.4780   -4.8151 C.ar      1 <0>        -0.1330
     26 C20        -1.4171   -3.9174   -4.1350 C.ar      1 <0>        -0.1296
     27 C21        -1.6259   -3.5298   -2.8232 C.ar      1 <0>         0.0026
     28 Cl2        -3.0291   -4.0866   -1.9661 Cl        1 <0>        -0.0627
     29 C22        -2.2452   -0.1443   -1.1538 C.2       1 <0>         0.5271
     30 O5         -2.3469    1.0677   -1.1144 O.2       1 <0>        -0.5593
     31 O6         -3.2682   -0.8925   -1.6172 O.3       1 <0>        -0.3307
     32 C23        -4.4401   -0.1955   -2.0448 C.3       1 <0>         0.0814
     33 C24        -4.3187    0.1421   -3.5321 C.3       1 <0>        -0.1646
     34 C25        -5.6691   -1.0789   -1.8210 C.3       1 <0>        -0.1461
     35 H1          0.7265    1.9445    0.1261 H         1 <0>         0.0591
     36 H2         -0.4179    1.8519   -1.2340 H         1 <0>         0.0916
     37 H3         -1.0159    1.7613    0.4401 H         1 <0>         0.0852
     38 H4         -1.8797   -2.7049   -0.4106 H         1 <0>         0.0883
     39 H5          2.0504    1.2963    0.3585 H         1 <0>         0.0959
     40 H6          2.8678   -0.0381    1.2068 H         1 <0>         0.1044
     41 H7          4.5108   -1.3368    0.1188 H         1 <0>         0.1511
     42 H8          5.9500   -1.7038   -1.8445 H         1 <0>         0.1259
     43 H9          5.4572   -0.5542   -3.9655 H         1 <0>         0.1229
     44 H10         3.5248    0.9629   -4.1238 H         1 <0>         0.1243
     45 H11         1.1107   -1.6051   -2.3881 H         1 <0>         0.1174
     46 H12         1.4866   -2.3034   -4.7188 H         1 <0>         0.1111
     47 H13        -0.1319   -3.7838   -5.8376 H         1 <0>         0.1142
     48 H14        -2.1270   -4.5664   -4.6260 H         1 <0>         0.1178
     49 H15        -4.5450    0.7251   -1.4707 H         1 <0>         0.0736
     50 H16        -5.2126    0.6737   -3.8582 H         1 <0>         0.0600
     51 H17        -3.4431    0.7714   -3.6915 H         1 <0>         0.0577
     52 H18        -4.2138   -0.7786   -4.1062 H         1 <0>         0.0626
     53 H19        -5.7556   -1.3194   -0.7613 H         1 <0>         0.0614
     54 H20        -6.5630   -0.5472   -2.1471 H         1 <0>         0.0645
     55 H21        -5.5642   -1.9995   -2.3951 H         1 <0>         0.0663
@<TRIPOS>BOND
     1    1    2 1
     2    1   35 1
     3    1   36 1
     4    1   37 1
     5    2    7 1
     6    2    3 2
     7    3    4 1
     8    3   29 1
     9    4    5 1
    10    4   22 1
    11    4   38 1
    12    5    6 2
    13    5   19 1
    14    6    7 1
    15    6   16 1
    16    7    8 1
    17    8    9 1
    18    8   39 1
    19    8   40 1
    20    9   14 ar
    21    9   10 ar
    22   10   11 ar
    23   10   41 1
    24   11   12 ar
    25   11   42 1
    26   12   13 ar
    27   12   43 1
    28   13   14 ar
    29   13   44 1
    30   14   15 1
    31   16   17 2
    32   16   18 1
    33   19   20 2
    34   19   21 1
    35   22   27 ar
    36   22   23 ar
    37   23   24 ar
    38   23   45 1
    39   24   25 ar
    40   24   46 1
    41   25   26 ar
    42   25   47 1
    43   26   27 ar
    44   26   48 1
    45   27   28 1
    46   29   30 2
    47   29   31 1
    48   31   32 1
    49   32   33 1
    50   32   34 1
    51   32   49 1
    52   33   50 1
    53   33   51 1
    54   33   52 1
    55   34   53 1
    56   34   54 1
    57   34   55 1
@<TRIPOS>MOLECULE
CHEMBL326810__1
   55    57     0     0     0
SMALL
USER_CHARGES

@<TRIPOS>ATOM
      1 C1         -0.0097    1.1715   -0.0860 C.3       1 <0>        -0.1099
      2 C2          0.1783   -0.3115    0.1047 C.2       1 <0>         0.2496
      3 C3         -0.8827   -1.0811    0.4025 C.2       1 <0>        -0.3101
      4 C4         -0.7472   -2.5623    0.6109 C.3       1 <0>         0.0771
      5 C5          0.5618   -3.0603    0.0673 C.2       1 <0>        -0.2227
      6 C6          1.5730   -2.2100   -0.2200 C.2       1 <0>         0.0777
      7 N1          1.4243   -0.8560   -0.0333 N.pl3     1 <0>        -0.4844
      8 C7          2.6080    0.0055    0.0225 C.3       1 <0>         0.1425
      9 C8          2.7360    0.5943    1.4038 C.ar      1 <0>        -0.0977
     10 C9          2.4298    1.9250    1.6192 C.ar      1 <0>        -0.0964
     11 C10         2.5472    2.4651    2.8860 C.ar      1 <0>        -0.1331
     12 C11         2.9709    1.6750    3.9385 C.ar      1 <0>        -0.1108
     13 C12         3.2773    0.3446    3.7244 C.ar      1 <0>        -0.1242
     14 C13         3.1546   -0.1982    2.4575 C.ar      1 <0>        -0.0444
     15 Cl1         3.5330   -1.8710    2.1891 Cl        1 <0>         0.0327
     16 C14         2.8541   -2.7425   -0.7471 C.2       1 <0>         0.5802
     17 O1          3.0632   -2.7507   -1.9509 O.co2     1 <0>        -0.7010
     18 O2          3.6998   -3.1726    0.0227 O.co2     1 <0>        -0.6594
     19 C15         0.7465   -4.4956   -0.1554 C.2       1 <0>         0.5238
     20 O3          1.8388   -4.9256   -0.5030 O.co2     1 <0>        -0.6561
     21 O4         -0.1913   -5.2658    0.0060 O.co2     1 <0>        -0.7080
     22 C16        -0.8188   -2.8642    2.0856 C.ar      1 <0>        -0.0161
     23 C17         0.1069   -2.3107    2.9503 C.ar      1 <0>        -0.0928
     24 C18         0.0414   -2.5875    4.3029 C.ar      1 <0>        -0.1294
     25 C19        -0.9499   -3.4181    4.7919 C.ar      1 <0>        -0.1330
     26 C20        -1.8758   -3.9720    3.9285 C.ar      1 <0>        -0.1295
     27 C21        -1.8142   -3.6907    2.5751 C.ar      1 <0>        -0.0024
     28 Cl2        -2.9810   -4.3809    1.4907 Cl        1 <0>        -0.0607
     29 C22        -2.1578   -0.4812    0.5232 C.2       1 <0>         0.5269
     30 O5         -2.2843    0.7177    0.3579 O.2       1 <0>        -0.5596
     31 O6         -3.2341   -1.2385    0.8218 O.3       1 <0>        -0.3303
     32 C23        -4.4908   -0.5665    0.9281 C.3       1 <0>         0.0815
     33 C24        -5.1753   -0.5455   -0.4400 C.3       1 <0>        -0.1668
     34 C25        -5.3798   -1.3033    1.9320 C.3       1 <0>        -0.1448
     35 H1          0.9469    1.6297   -0.3373 H         1 <0>         0.0545
     36 H2         -0.7200    1.3469   -0.8939 H         1 <0>         0.0904
     37 H3         -0.3919    1.6107    0.8355 H         1 <0>         0.0883
     38 H4         -1.5646   -3.0724    0.1011 H         1 <0>         0.0910
     39 H5          3.4967   -0.5830   -0.2055 H         1 <0>         0.1181
     40 H6          2.5072    0.8090   -0.7071 H         1 <0>         0.0792
     41 H7          2.0991    2.5427    0.7973 H         1 <0>         0.1279
     42 H8          2.3081    3.5049    3.0537 H         1 <0>         0.1200
     43 H9          3.0628    2.0977    4.9281 H         1 <0>         0.1208
     44 H10         3.6086   -0.2724    4.5466 H         1 <0>         0.1266
     45 H11         0.8817   -1.6622    2.5688 H         1 <0>         0.1236
     46 H12         0.7651   -2.1551    4.9780 H         1 <0>         0.1113
     47 H13        -1.0003   -3.6343    5.8489 H         1 <0>         0.1145
     48 H14        -2.6499   -4.6210    4.3106 H         1 <0>         0.1181
     49 H15        -4.3283    0.4561    1.2688 H         1 <0>         0.0732
     50 H16        -6.1338   -0.0329   -0.3589 H         1 <0>         0.0605
     51 H17        -4.5419   -0.0206   -1.1552 H         1 <0>         0.0591
     52 H18        -5.3378   -1.5681   -0.7807 H         1 <0>         0.0631
     53 H19        -4.8921   -1.3182    2.9067 H         1 <0>         0.0607
     54 H20        -6.3383   -0.7907    2.0131 H         1 <0>         0.0640
     55 H21        -5.5423   -2.3258    1.5913 H         1 <0>         0.0664
@<TRIPOS>BOND
     1    1    2 1
     2    1   35 1
     3    1   36 1
     4    1   37 1
     5    2    7 1
     6    2    3 2
     7    3    4 1
     8    3   29 1
     9    4    5 1
    10    4   22 1
    11    4   38 1
    12    5    6 2
    13    5   19 1
    14    6    7 1
    15    6   16 1
    16    7    8 1
    17    8    9 1
    18    8   39 1
    19    8   40 1
    20    9   14 ar
    21    9   10 ar
    22   10   11 ar
    23   10   41 1
    24   11   12 ar
    25   11   42 1
    26   12   13 ar
    27   12   43 1
    28   13   14 ar
    29   13   44 1
    30   14   15 1
    31   16   17 2
    32   16   18 1
    33   19   20 2
    34   19   21 1
    35   22   27 ar
    36   22   23 ar
    37   23   24 ar
    38   23   45 1
    39   24   25 ar
    40   24   46 1
    41   25   26 ar
    42   25   47 1
    43   26   27 ar
    44   26   48 1
    45   27   28 1
    46   29   30 2
    47   29   31 1
    48   31   32 1
    49   32   33 1
    50   32   34 1
    51   32   49 1
    52   33   50 1
    53   33   51 1
    54   33   52 1
    55   34   53 1
    56   34   54 1
    57   34   55 1
@<TRIPOS>MOLECULE
CHEMBL114226
   49    50     0     0     0
SMALL
USER_CHARGES

@<TRIPOS>ATOM
      1 C1          1.0054   -0.9795    0.0092 C.3       1 <0>        -0.1751
      2 C2         -0.0338    0.1409    0.0855 C.3       1 <0>         0.1061
      3 N1         -1.3792   -0.4380    0.0524 N.pl3     1 <0>        -0.5003
      4 C3         -1.9882   -0.8147    1.2176 C.2       1 <0>         0.2391
      5 C4         -3.3154   -1.0119    1.2704 C.2       1 <0>        -0.3336
      6 C5         -4.1888   -0.8205    0.0635 C.3       1 <0>         0.0736
      7 C6         -3.3648   -0.7900   -1.1924 C.2       1 <0>        -0.2344
      8 C7         -2.0287   -0.5958   -1.1504 C.2       1 <0>         0.0811
      9 C8         -1.2533   -0.5578   -2.4154 C.2       1 <0>         0.5829
     10 O1         -1.1528    0.4879   -3.0392 O.co2     1 <0>        -0.6893
     11 O2         -0.7154   -1.5723   -2.8329 O.co2     1 <0>        -0.6872
     12 C9         -4.0241   -0.9690   -2.4873 C.2       1 <0>         0.5243
     13 O3         -3.3542   -1.0596   -3.5079 O.co2     1 <0>        -0.6570
     14 O4         -5.2454   -1.0280   -2.5494 O.co2     1 <0>        -0.7093
     15 C10        -4.9394    0.4795    0.1958 C.ar      1 <0>        -0.0150
     16 C11        -4.2458    1.6710    0.2973 C.ar      1 <0>        -0.0895
     17 C12        -4.9341    2.8635    0.4186 C.ar      1 <0>        -0.1220
     18 C13        -6.3166    2.8654    0.4385 C.ar      1 <0>        -0.1328
     19 C14        -7.0110    1.6750    0.3371 C.ar      1 <0>        -0.1204
     20 C15        -6.3226    0.4814    0.2099 C.ar      1 <0>        -0.0198
     21 Cl1        -7.1944   -1.0138    0.0758 Cl        1 <0>        -0.0663
     22 C16        -3.9065   -1.4107    2.4946 C.2       1 <0>         0.5837
     23 O5         -3.2124   -1.5706    3.4821 O.2       1 <0>        -0.5842
     24 N2         -5.2370   -1.6133    2.5661 N.am      1 <0>        -0.7374
     25 C17        -5.8482   -2.0257    3.8320 C.3       1 <0>         0.1396
     26 C18        -6.1386   -0.7891    4.6849 C.3       1 <0>        -0.1588
     27 C19        -7.1555   -2.7685    3.5490 C.3       1 <0>        -0.1612
     28 C20        -1.1579   -1.0118    2.4598 C.3       1 <0>        -0.1045
     29 H1          2.0064   -0.5488    0.0339 H         1 <0>         0.0566
     30 H2          0.8781   -1.6516    0.8579 H         1 <0>         0.0513
     31 H3          0.8721   -1.5362   -0.9183 H         1 <0>         0.0841
     32 H4          0.0995    0.6976    1.0131 H         1 <0>         0.0695
     33 H5          0.0935    0.8130   -0.7631 H         1 <0>         0.0932
     34 H6         -4.9031   -1.6417    0.0039 H         1 <0>         0.0760
     35 H7         -3.1659    1.6700    0.2822 H         1 <0>         0.1212
     36 H8         -4.3918    3.7940    0.4982 H         1 <0>         0.1170
     37 H9         -6.8538    3.7975    0.5336 H         1 <0>         0.1184
     38 H10        -8.0909    1.6766    0.3529 H         1 <0>         0.1215
     39 H11        -5.7899   -1.4859    1.7793 H         1 <0>         0.4007
     40 H12        -5.1647   -2.6843    4.3678 H         1 <0>         0.0810
     41 H13        -6.5933   -1.0960    5.6268 H         1 <0>         0.0541
     42 H14        -5.2072   -0.2599    4.8865 H         1 <0>         0.0595
     43 H15        -6.8221   -0.1305    4.1490 H         1 <0>         0.0531
     44 H16        -6.9486   -3.6495    2.9414 H         1 <0>         0.0598
     45 H17        -7.6102   -3.0754    4.4909 H         1 <0>         0.0640
     46 H18        -7.8390   -2.1099    3.0131 H         1 <0>         0.0593
     47 H19        -0.1210   -0.7503    2.2489 H         1 <0>         0.0529
     48 H20        -1.5389   -0.3729    3.2566 H         1 <0>         0.0883
     49 H21        -1.2134   -2.0545    2.7722 H         1 <0>         0.0862
@<TRIPOS>BOND
     1    1    2 1
     2    1   29 1
     3    1   30 1
     4    1   31 1
     5    2    3 1
     6    2   32 1
     7    2   33 1
     8    3    8 1
     9    3    4 1
    10    4    5 2
    11    4   28 1
    12    5    6 1
    13    5   22 1
    14    6    7 1
    15    6   15 1
    16    6   34 1
    17    7    8 2
    18    7   12 1
    19    8    9 1
    20    9   10 2
    21    9   11 1
    22   12   13 2
    23   12   14 1
    24   15   20 ar
    25   15   16 ar
    26   16   17 ar
    27   16   35 1
    28   17   18 ar
    29   17   36 1
    30   18   19 ar
    31   18   37 1
    32   19   20 ar
    33   19   38 1
    34   20   21 1
    35   22   23 2
    36   22   24 am
    37   24   25 1
    38   24   39 1
    39   25   26 1
    40   25   27 1
    41   25   40 1
    42   26   41 1
    43   26   42 1
    44   26   43 1
    45   27   44 1
    46   27   45 1
    47   27   46 1
    48   28   47 1
    49   28   48 1
    50   28   49 1
@<TRIPOS>MOLECULE
CHEMBL114226__1
   49    50     0     0     0
SMALL
USER_CHARGES

@<TRIPOS>ATOM
      1 C1          0.0853    1.4054    0.3642 C.3       1 <0>        -0.1762
      2 C2          0.0447   -0.1206    0.2614 C.3       1 <0>         0.1063
      3 N1         -1.3462   -0.5651    0.1425 N.pl3     1 <0>        -0.5007
      4 C3         -2.0714   -0.8441    1.2680 C.2       1 <0>         0.2391
      5 C4         -3.1979   -1.5718    1.2005 C.2       1 <0>        -0.3334
      6 C5         -3.7059   -2.1181   -0.1032 C.3       1 <0>         0.0739
      7 C6         -3.0471   -1.4285   -1.2640 C.2       1 <0>        -0.2348
      8 C7         -1.9207   -0.6954   -1.1011 C.2       1 <0>         0.0817
      9 C8         -1.2967   -0.0314   -2.2727 C.2       1 <0>         0.5829
     10 O1         -1.5670    1.1317   -2.5314 O.co2     1 <0>        -0.6871
     11 O2         -0.5128   -0.6480   -2.9784 O.co2     1 <0>        -0.6886
     12 C9         -3.6381   -1.5471   -2.5982 C.2       1 <0>         0.5241
     13 O3         -3.1763   -0.9036   -3.5317 O.co2     1 <0>        -0.6573
     14 O4         -4.5941   -2.2898   -2.7803 O.co2     1 <0>        -0.7094
     15 C10        -3.4106   -3.5943   -0.1709 C.ar      1 <0>        -0.0147
     16 C11        -2.1049   -4.0422   -0.0973 C.ar      1 <0>        -0.0901
     17 C12        -1.8339   -5.3962   -0.1594 C.ar      1 <0>        -0.1218
     18 C13        -2.8684   -6.3033   -0.2951 C.ar      1 <0>        -0.1333
     19 C14        -4.1741   -5.8568   -0.3687 C.ar      1 <0>        -0.1197
     20 C15        -4.4465   -4.5018   -0.3009 C.ar      1 <0>        -0.0204
     21 Cl1        -6.0870   -3.9405   -0.3866 Cl        1 <0>        -0.0662
     22 C16        -3.9250   -1.8312    2.3884 C.2       1 <0>         0.5836
     23 O5         -3.5266   -1.3959    3.4533 O.2       1 <0>        -0.5842
     24 N2         -5.0579   -2.5597    2.3396 N.am      1 <0>        -0.7375
     25 C17        -5.8098   -2.8278    3.5680 C.3       1 <0>         0.1400
     26 C18        -6.7499   -1.6557    3.8566 C.3       1 <0>        -0.1613
     27 C19        -6.6293   -4.1083    3.3951 C.3       1 <0>        -0.1594
     28 C20        -1.5993   -0.3279    2.6028 C.3       1 <0>        -0.1041
     29 H1          1.1201    1.7362    0.4526 H         1 <0>         0.0563
     30 H2         -0.3605    1.8418   -0.5297 H         1 <0>         0.0857
     31 H3         -0.4748    1.7255    1.2428 H         1 <0>         0.0508
     32 H4          0.6048   -0.4406   -0.6172 H         1 <0>         0.0926
     33 H5          0.4904   -0.5569    1.1553 H         1 <0>         0.0699
     34 H6         -4.7837   -1.9657   -0.1602 H         1 <0>         0.0761
     35 H7         -1.2963   -3.3341    0.0083 H         1 <0>         0.1212
     36 H8         -0.8136   -5.7456   -0.1023 H         1 <0>         0.1170
     37 H9         -2.6560   -7.3611   -0.3439 H         1 <0>         0.1185
     38 H10        -4.9822   -6.5655   -0.4749 H         1 <0>         0.1216
     39 H11        -5.3753   -2.9065    1.4911 H         1 <0>         0.4008
     40 H12        -5.1157   -2.9502    4.3994 H         1 <0>         0.0808
     41 H13        -7.3093   -1.8553    4.7706 H         1 <0>         0.0547
     42 H14        -6.1660   -0.7436    3.9798 H         1 <0>         0.0606
     43 H15        -7.4440   -1.5334    3.0252 H         1 <0>         0.0533
     44 H16        -5.9596   -4.9433    3.1894 H         1 <0>         0.0598
     45 H17        -7.1887   -4.3078    4.3090 H         1 <0>         0.0634
     46 H18        -7.3234   -3.9859    2.5636 H         1 <0>         0.0586
     47 H19        -0.6768    0.2369    2.4683 H         1 <0>         0.0528
     48 H20        -2.3630    0.3205    3.0323 H         1 <0>         0.0889
     49 H21        -1.4167   -1.1677    3.2732 H         1 <0>         0.0851
@<TRIPOS>BOND
     1    1    2 1
     2    1   29 1
     3    1   30 1
     4    1   31 1
     5    2    3 1
     6    2   32 1
     7    2   33 1
     8    3    8 1
     9    3    4 1
    10    4    5 2
    11    4   28 1
    12    5    6 1
    13    5   22 1
    14    6    7 1
    15    6   15 1
    16    6   34 1
    17    7    8 2
    18    7   12 1
    19    8    9 1
    20    9   10 2
    21    9   11 1
    22   12   13 2
    23   12   14 1
    24   15   20 ar
    25   15   16 ar
    26   16   17 ar
    27   16   35 1
    28   17   18 ar
    29   17   36 1
    30   18   19 ar
    31   18   37 1
    32   19   20 ar
    33   19   38 1
    34   20   21 1
    35   22   23 2
    36   22   24 am
    37   24   25 1
    38   24   39 1
    39   25   26 1
    40   25   27 1
    41   25   40 1
    42   26   41 1
    43   26   42 1
    44   26   43 1
    45   27   44 1
    46   27   45 1
    47   27   46 1
    48   28   47 1
    49   28   48 1
    50   28   49 1
@<TRIPOS>MOLECULE
CHEMBL337332
   41    44     0     0     0
SMALL
USER_CHARGES

@<TRIPOS>ATOM
      1 C1         -0.0178    1.4608    0.0101 C.3       1 <0>         0.0663
      2 N1          0.0021   -0.0041    0.0020 N.am      1 <0>        -0.5518
      3 C2         -1.2031   -0.7117    0.0039 C.ar      1 <0>         0.1664
      4 C3         -2.3946   -0.0532   -0.2745 C.ar      1 <0>        -0.1533
      5 C4         -3.5833   -0.7556   -0.2871 C.ar      1 <0>        -0.0835
      6 C5         -3.5891   -2.1133   -0.0240 C.ar      1 <0>        -0.1413
      7 C6         -2.4060   -2.7702    0.2593 C.ar      1 <0>        -0.0793
      8 C7         -1.2145   -2.0714    0.2799 C.ar      1 <0>        -0.1376
      9 C8          0.0693   -2.7829    0.6224 C.3       1 <0>        -0.0881
     10 C9          1.2289   -2.1513   -0.1482 C.3       1 <0>         0.1391
     11 C10         1.1792   -0.6529   -0.0127 C.2       1 <0>         0.5041
     12 O1          2.2121   -0.0251    0.0880 O.2       1 <0>        -0.4933
     13 N2          1.1257   -2.5112   -1.5645 N.am      1 <0>        -0.7184
     14 C11         2.2289   -2.5239   -2.3387 C.2       1 <0>         0.5839
     15 O2          3.3103   -2.2366   -1.8614 O.2       1 <0>        -0.4937
     16 C12         2.1253   -2.8851   -3.7605 C.2       1 <0>         0.0155
     17 C13         3.1621   -2.9393   -4.6369 C.2       1 <0>        -0.0917
     18 C14         2.6424   -3.3248   -5.8963 C.ar      1 <0>        -0.1113
     19 C15         3.2249   -3.5403   -7.1523 C.ar      1 <0>        -0.0469
     20 C16         2.4440   -3.9156   -8.2074 C.ar      1 <0>        -0.0608
     21 C17         1.0734   -4.0866   -8.0478 C.ar      1 <0>        -0.0764
     22 C18         0.4786   -3.8802   -6.8236 C.ar      1 <0>        -0.1179
     23 C19         1.2542   -3.4974   -5.7326 C.ar      1 <0>         0.1189
     24 N3          0.9592   -3.2291   -4.4164 N.pl3     1 <0>        -0.5762
     25 H1          0.0771   -3.2718   -4.0153 H         1 <0>         0.4184
     26 Cl1         3.1687   -4.1813   -9.7624 Cl        1 <0>        -0.0677
     27 H2          1.0048    1.8381    0.0023 H         1 <0>         0.0967
     28 H3         -0.5450    1.8219   -0.8730 H         1 <0>         0.0701
     29 H4         -0.5280    1.8123    0.9069 H         1 <0>         0.0725
     30 H5         -2.3909    1.0070   -0.4806 H         1 <0>         0.1303
     31 H6         -4.5098   -0.2440   -0.5023 H         1 <0>         0.1297
     32 H7         -4.5196   -2.6614   -0.0396 H         1 <0>         0.1279
     33 H8         -2.4132   -3.8306    0.4644 H         1 <0>         0.1313
     34 H9          0.2563   -2.6984    1.6929 H         1 <0>         0.1047
     35 H10        -0.0158   -3.8352    0.3516 H         1 <0>         0.1024
     36 H11         2.1733   -2.5216    0.2508 H         1 <0>         0.1341
     37 H12         0.2634   -2.7402   -1.9452 H         1 <0>         0.4013
     38 H13         4.1969   -2.7261   -4.4132 H         1 <0>         0.1618
     39 H14         4.2886   -3.4095   -7.2854 H         1 <0>         0.1390
     40 H15         0.4696   -4.3838   -8.8924 H         1 <0>         0.1405
     41 H16        -0.5869   -4.0148   -6.7098 H         1 <0>         0.1342
@<TRIPOS>BOND
     1    1    2 1
     2    1   27 1
     3    1   28 1
     4    1   29 1
     5    2   11 am
     6    2    3 1
     7    3    8 ar
     8    3    4 ar
     9    4    5 ar
    10    4   30 1
    11    5    6 ar
    12    5   31 1
    13    6    7 ar
    14    6   32 1
    15    7    8 ar
    16    7   33 1
    17    8    9 1
    18    9   10 1
    19    9   34 1
    20    9   35 1
    21   10   11 1
    22   10   13 1
    23   10   36 1
    24   11   12 2
    25   13   14 am
    26   13   37 1
    27   14   15 2
    28   14   16 1
    29   16   24 1
    30   16   17 2
    31   17   18 1
    32   17   38 1
    33   18   23 ar
    34   18   19 ar
    35   19   20 ar
    36   19   39 1
    37   20   21 ar
    38   20   26 1
    39   21   22 ar
    40   21   40 1
    41   22   23 ar
    42   22   41 1
    43   23   24 1
    44   24   25 1
@<TRIPOS>MOLECULE
CHEMBL337332__1
   41    44     0     0     0
SMALL
USER_CHARGES

@<TRIPOS>ATOM
      1 C1         -0.0178    1.4608    0.0101 C.3       1 <0>         0.0663
      2 N1          0.0021   -0.0041    0.0020 N.am      1 <0>        -0.5520
      3 C2         -1.2031   -0.7117    0.0039 C.ar      1 <0>         0.1665
      4 C3         -2.3917   -0.0565    0.3017 C.ar      1 <0>        -0.1532
      5 C4         -3.5803   -0.7591    0.3180 C.ar      1 <0>        -0.0835
      6 C5         -3.5888   -2.1137    0.0393 C.ar      1 <0>        -0.1414
      7 C6         -2.4084   -2.7674   -0.2624 C.ar      1 <0>        -0.0793
      8 C7         -1.2173   -2.0681   -0.2876 C.ar      1 <0>        -0.1377
      9 C8          0.0630   -2.7755   -0.6510 C.3       1 <0>        -0.0884
     10 C9          1.2302   -2.1528    0.1153 C.3       1 <0>         0.1390
     11 C10         1.1792   -0.6529   -0.0127 C.2       1 <0>         0.5042
     12 O1          2.2100   -0.0239   -0.1263 O.2       1 <0>        -0.4932
     13 N2          1.1410   -2.5290    1.5283 N.am      1 <0>        -0.7178
     14 C11         2.2518   -2.5506    2.2913 C.2       1 <0>         0.5839
     15 O2          3.3285   -2.2578    1.8067 O.2       1 <0>        -0.4939
     16 C12         2.1623   -2.9282    3.7098 C.2       1 <0>         0.0154
     17 C13         3.2060   -2.9812    4.5782 C.2       1 <0>        -0.0917
     18 C14         2.6995   -3.3855    5.8370 C.ar      1 <0>        -0.1113
     19 C15         3.2934   -3.6093    7.0861 C.ar      1 <0>        -0.0469
     20 C16         2.5242   -4.0049    8.1425 C.ar      1 <0>        -0.0608
     21 C17         1.1543   -4.1883    7.9908 C.ar      1 <0>        -0.0764
     22 C18         0.5485   -3.9750    6.7732 C.ar      1 <0>        -0.1179
     23 C19         1.3119   -3.5708    5.6813 C.ar      1 <0>         0.1189
     24 N3          1.0028   -3.2798    4.3733 N.pl3     1 <0>        -0.5762
     25 H1          0.1167   -3.3179    3.9804 H         1 <0>         0.4184
     26 Cl1         3.2633   -4.2820    9.6887 Cl        1 <0>        -0.0676
     27 H2          1.0048    1.8381    0.0023 H         1 <0>         0.0967
     28 H3         -0.5450    1.8219   -0.8730 H         1 <0>         0.0723
     29 H4         -0.5280    1.8123    0.9069 H         1 <0>         0.0703
     30 H5         -2.3859    1.0011    0.5206 H         1 <0>         0.1303
     31 H6         -4.5045   -0.2502    0.5489 H         1 <0>         0.1297
     32 H7         -4.5191   -2.6620    0.0577 H         1 <0>         0.1279
     33 H8         -2.4177   -3.8254   -0.4789 H         1 <0>         0.1313
     34 H9         -0.0195   -3.8310   -0.3915 H         1 <0>         0.1023
     35 H10         0.2394   -2.6787   -1.7223 H         1 <0>         0.1047
     36 H11         2.1706   -2.5184   -0.2972 H         1 <0>         0.1339
     37 H12         0.2825   -2.7625    1.9148 H         1 <0>         0.4014
     38 H13         4.2371   -2.7559    4.3491 H         1 <0>         0.1618
     39 H14         4.3568   -3.4697    7.2129 H         1 <0>         0.1390
     40 H15         0.5599   -4.5015    8.8363 H         1 <0>         0.1405
     41 H16        -0.5161   -4.1208    6.6652 H         1 <0>         0.1342
@<TRIPOS>BOND
     1    1    2 1
     2    1   27 1
     3    1   28 1
     4    1   29 1
     5    2   11 am
     6    2    3 1
     7    3    8 ar
     8    3    4 ar
     9    4    5 ar
    10    4   30 1
    11    5    6 ar
    12    5   31 1
    13    6    7 ar
    14    6   32 1
    15    7    8 ar
    16    7   33 1
    17    8    9 1
    18    9   10 1
    19    9   34 1
    20    9   35 1
    21   10   11 1
    22   10   13 1
    23   10   36 1
    24   11   12 2
    25   13   14 am
    26   13   37 1
    27   14   15 2
    28   14   16 1
    29   16   24 1
    30   16   17 2
    31   17   18 1
    32   17   38 1
    33   18   23 ar
    34   18   19 ar
    35   19   20 ar
    36   19   39 1
    37   20   21 ar
    38   20   26 1
    39   21   22 ar
    40   21   40 1
    41   22   23 ar
    42   22   41 1
    43   23   24 1
    44   24   25 1
@<TRIPOS>MOLECULE
CHEMBL132201
   41    43     0     0     0
SMALL
USER_CHARGES

@<TRIPOS>ATOM
      1 C1          0.3440    1.0399   -0.9723 C.ar      1 <0>        -0.1471
      2 C2          1.4922    1.7990   -0.8382 C.ar      1 <0>        -0.0916
      3 C3          2.6292    1.2468   -0.2786 C.ar      1 <0>        -0.1685
      4 C4          2.6209   -0.0710    0.1501 C.ar      1 <0>         0.1142
      5 C5          1.4642   -0.8365    0.0153 C.ar      1 <0>         0.1011
      6 C6          0.3271   -0.2749   -0.5475 C.ar      1 <0>        -0.1074
      7 N1          1.4498   -2.1684    0.4460 N.am      1 <0>        -0.6270
      8 C7          0.5162   -3.0188   -0.0248 C.2       1 <0>         0.5667
      9 O1         -0.2578   -2.6543   -0.8880 O.2       1 <0>        -0.5181
     10 C8          0.4335   -4.3978    0.5097 C.ar      1 <0>         0.0936
     11 C9         -0.5298   -5.2719    0.0143 C.ar      1 <0>        -0.0670
     12 C10        -0.5935   -6.5703    0.5306 C.ar      1 <0>         0.0128
     13 C11         0.3199   -6.9315    1.5270 C.ar      1 <0>        -0.1042
     14 C12         1.2461   -6.0002    1.9632 C.ar      1 <0>         0.1118
     15 N2          1.2822   -4.7888    1.4523 N.ar      1 <0>        -0.4348
     16 C13        -1.5677   -7.5047    0.0525 C.1       1 <0>         0.2555
     17 N3         -2.3406   -8.2459   -0.3268 N.1       1 <0>        -0.3952
     18 O2          3.7383   -0.6157    0.7002 O.3       1 <0>        -0.2579
     19 C14         4.8265    0.1800    0.8516 C.ar      1 <0>         0.0479
     20 C15         5.8735    0.1009   -0.0590 C.ar      1 <0>        -0.1539
     21 C16         6.9854    0.9054    0.0849 C.ar      1 <0>        -0.0852
     22 C17         7.0643    1.8044    1.1477 C.ar      1 <0>        -0.1119
     23 C18         6.0033    1.8875    2.0733 C.ar      1 <0>        -0.0633
     24 C19         4.8870    1.0754    1.9139 C.ar      1 <0>        -0.1309
     25 C20         6.0763    2.8364    3.2039 C.2       1 <0>         0.5609
     26 O3          6.6055    2.4980    4.2528 O.co2     1 <0>        -0.6880
     27 O4          5.6076    3.9599    3.0903 O.co2     1 <0>        -0.6967
     28 C21         8.2520    2.6641    1.3037 C.2       1 <0>         0.5135
     29 O5          9.1413    2.6365    0.4645 O.co2     1 <0>        -0.7145
     30 O6          8.3478    3.4049    2.2722 O.co2     1 <0>        -0.6364
     31 H1         -0.5432    1.4772   -1.4060 H         1 <0>         0.1225
     32 H2          1.5007    2.8261   -1.1720 H         1 <0>         0.1252
     33 H3          3.5242    1.8424   -0.1758 H         1 <0>         0.1426
     34 H4         -0.5712   -0.8652   -0.6532 H         1 <0>         0.1559
     35 H5          2.1117   -2.4793    1.0833 H         1 <0>         0.4277
     36 H6         -1.2167   -4.9529   -0.7556 H         1 <0>         0.1608
     37 H7          0.3022   -7.9247    1.9509 H         1 <0>         0.1529
     38 H8          1.9531   -6.2738    2.7323 H         1 <0>         0.1789
     39 H9          5.8167   -0.5944   -0.8835 H         1 <0>         0.1128
     40 H10         7.7954    0.8383   -0.6262 H         1 <0>         0.1277
     41 H11         4.0692    1.1365    2.6167 H         1 <0>         0.1146
@<TRIPOS>BOND
     1    1    6 ar
     2    1    2 ar
     3    1   31 1
     4    2    3 ar
     5    2   32 1
     6    3    4 ar
     7    3   33 1
     8    4    5 ar
     9    4   18 1
    10    5    6 ar
    11    5    7 1
    12    6   34 1
    13    7    8 am
    14    7   35 1
    15    8    9 2
    16    8   10 1
    17   10   15 ar
    18   10   11 ar
    19   11   12 ar
    20   11   36 1
    21   12   13 ar
    22   12   16 1
    23   13   14 ar
    24   13   37 1
    25   14   15 ar
    26   14   38 1
    27   16   17 3
    28   18   19 1
    29   19   24 ar
    30   19   20 ar
    31   20   21 ar
    32   20   39 1
    33   21   22 ar
    34   21   40 1
    35   22   23 ar
    36   22   28 1
    37   23   24 ar
    38   23   25 1
    39   24   41 1
    40   25   26 2
    41   25   27 1
    42   28   29 2
    43   28   30 1
@<TRIPOS>MOLECULE
CHEMBL324288
   48    49     0     0     0
SMALL
USER_CHARGES

@<TRIPOS>ATOM
      1 C1          1.0052   -0.9813    0.0117 C.3       1 <0>        -0.1753
      2 C2         -0.0335    0.1396    0.0854 C.3       1 <0>         0.1044
      3 N1         -1.3791   -0.4386    0.0524 N.pl3     1 <0>        -0.4901
      4 C3         -1.9879   -0.8143    1.2170 C.2       1 <0>         0.2489
      5 C4         -3.3165   -1.0114    1.2697 C.2       1 <0>        -0.3142
      6 C5         -4.1892   -0.8201    0.0624 C.3       1 <0>         0.0856
      7 H1         -4.9037   -1.6411    0.0025 H         1 <0>         0.0725
      8 C6         -3.3646   -0.7900   -1.1931 C.2       1 <0>        -0.2232
      9 C7         -2.0286   -0.5966   -1.1506 C.2       1 <0>         0.0687
     10 C8         -1.2528   -0.5591   -2.4153 C.2       1 <0>         0.5831
     11 O1         -1.1519    0.4865   -3.0393 O.co2     1 <0>        -0.6879
     12 O2         -0.7152   -1.5738   -2.8326 O.co2     1 <0>        -0.6872
     13 C9         -4.0232   -0.9694   -2.4884 C.2       1 <0>         0.5262
     14 O3         -3.3527   -1.0609   -3.5086 O.co2     1 <0>        -0.6544
     15 O4         -5.2444   -1.0280   -2.5512 O.co2     1 <0>        -0.7162
     16 C10        -4.9388    0.4807    0.1935 C.ar      1 <0>        -0.0178
     17 C11        -4.2441    1.6715    0.2945 C.ar      1 <0>        -0.1049
     18 C12        -4.9316    2.8647    0.4148 C.ar      1 <0>        -0.1323
     19 C13        -6.3138    2.8671    0.4336 C.ar      1 <0>        -0.1461
     20 C14        -7.0085    1.6764    0.3317 C.ar      1 <0>        -0.1332
     21 C15        -6.3211    0.4836    0.2071 C.ar      1 <0>        -0.0854
     22 C16        -3.9069   -1.4092    2.4916 C.2       1 <0>         0.5293
     23 O5         -3.2136   -1.5689    3.4788 O.2       1 <0>        -0.5604
     24 O6         -5.2393   -1.6117    2.5629 O.3       1 <0>        -0.3379
     25 C17        -5.7679   -2.0122    3.8286 C.3       1 <0>         0.0799
     26 C18        -6.1477   -0.7710    4.6386 C.3       1 <0>        -0.1653
     27 C19        -7.0097   -2.8792    3.6115 C.3       1 <0>        -0.1473
     28 C20        -1.1579   -1.0108    2.4594 C.3       1 <0>        -0.1111
     29 H2          2.0064   -0.5511    0.0362 H         1 <0>         0.0583
     30 H3          0.8770   -1.6519    0.8614 H         1 <0>         0.0513
     31 H4          0.8723   -1.5396   -0.9150 H         1 <0>         0.0852
     32 H5          0.0995    0.6978    1.0121 H         1 <0>         0.0709
     33 H6          0.0947    0.8102   -0.7643 H         1 <0>         0.0960
     34 H7         -3.1642    1.6697    0.2798 H         1 <0>         0.1082
     35 H8         -4.3889    3.7950    0.4945 H         1 <0>         0.1063
     36 H9         -6.8510    3.7993    0.5283 H         1 <0>         0.1044
     37 H10        -8.0884    1.6782    0.3467 H         1 <0>         0.1070
     38 H11        -6.8638   -0.4464    0.1237 H         1 <0>         0.1163
     39 H12        -5.0158   -2.5844    4.3718 H         1 <0>         0.0746
     40 H13        -6.8998   -0.1988    4.0954 H         1 <0>         0.0633
     41 H14        -6.5509   -1.0765    5.6041 H         1 <0>         0.0606
     42 H15        -5.2630   -0.1533    4.7933 H         1 <0>         0.0585
     43 H16        -6.7391   -3.7634    3.0345 H         1 <0>         0.0623
     44 H17        -7.4129   -3.1847    4.5770 H         1 <0>         0.0659
     45 H18        -7.7618   -2.3070    3.0683 H         1 <0>         0.0660
     46 H19        -0.1210   -0.7487    2.2489 H         1 <0>         0.0583
     47 H20        -1.5395   -0.3722    3.2561 H         1 <0>         0.0896
     48 H21        -1.2128   -2.0536    2.7719 H         1 <0>         0.0882
@<TRIPOS>BOND
     1    1    2 1
     2    1   29 1
     3    1   30 1
     4    1   31 1
     5    2    3 1
     6    2   32 1
     7    2   33 1
     8    3    9 1
     9    3    4 1
    10    4    5 2
    11    4   28 1
    12    5    6 1
    13    5   22 1
    14    6    7 1
    15    6    8 1
    16    6   16 1
    17    8    9 2
    18    8   13 1
    19    9   10 1
    20   10   11 2
    21   10   12 1
    22   13   14 2
    23   13   15 1
    24   16   21 ar
    25   16   17 ar
    26   17   18 ar
    27   17   34 1
    28   18   19 ar
    29   18   35 1
    30   19   20 ar
    31   19   36 1
    32   20   21 ar
    33   20   37 1
    34   21   38 1
    35   22   23 2
    36   22   24 1
    37   24   25 1
    38   25   26 1
    39   25   27 1
    40   25   39 1
    41   26   40 1
    42   26   41 1
    43   26   42 1
    44   27   43 1
    45   27   44 1
    46   27   45 1
    47   28   46 1
    48   28   47 1
    49   28   48 1
@<TRIPOS>MOLECULE
CHEMBL136168
   41    44     0     0     0
SMALL
USER_CHARGES

@<TRIPOS>ATOM
      1 C1         -0.0178    1.4608    0.0101 C.3       1 <0>         0.0665
      2 N1          0.0021   -0.0041    0.0020 N.am      1 <0>        -0.5516
      3 C2         -1.2031   -0.7117    0.0039 C.ar      1 <0>         0.1661
      4 C3         -2.3946   -0.0532   -0.2745 C.ar      1 <0>        -0.1531
      5 C4         -3.5833   -0.7556   -0.2871 C.ar      1 <0>        -0.0834
      6 C5         -3.5891   -2.1133   -0.0240 C.ar      1 <0>        -0.1410
      7 C6         -2.4060   -2.7702    0.2593 C.ar      1 <0>        -0.0792
      8 C7         -1.2145   -2.0714    0.2799 C.ar      1 <0>        -0.1376
      9 C8          0.0693   -2.7829    0.6224 C.3       1 <0>        -0.0883
     10 C9          1.2289   -2.1513   -0.1482 C.3       1 <0>         0.1391
     11 C10         1.1792   -0.6529   -0.0127 C.2       1 <0>         0.5044
     12 O1          2.2121   -0.0251    0.0880 O.2       1 <0>        -0.4937
     13 N2          1.1257   -2.5112   -1.5645 N.am      1 <0>        -0.7185
     14 C11         2.2289   -2.5239   -2.3387 C.2       1 <0>         0.5845
     15 O2          3.3103   -2.2366   -1.8614 O.2       1 <0>        -0.4936
     16 C12         2.1253   -2.8851   -3.7605 C.2       1 <0>         0.0163
     17 C13         3.1620   -2.9394   -4.6370 C.2       1 <0>        -0.0926
     18 C14         2.6423   -3.3248   -5.8964 C.ar      1 <0>        -0.1094
     19 C15         3.2247   -3.5404   -7.1526 C.ar      1 <0>        -0.0495
     20 C16         2.4449   -3.9155   -8.2073 C.ar      1 <0>        -0.1384
     21 C17         1.0751   -4.0862   -8.0493 C.ar      1 <0>        -0.0707
     22 C18         0.4786   -3.8804   -6.8247 C.ar      1 <0>        -0.0529
     23 C19         1.2544   -3.4974   -5.7325 C.ar      1 <0>         0.1233
     24 N3          0.9594   -3.2291   -4.4164 N.pl3     1 <0>        -0.5725
     25 H1          0.0772   -3.2720   -4.0153 H         1 <0>         0.4189
     26 Cl1        -1.2341   -4.0977   -6.6427 Cl        1 <0>        -0.0707
     27 H2          1.0048    1.8381    0.0023 H         1 <0>         0.0966
     28 H3         -0.5450    1.8219   -0.8730 H         1 <0>         0.0701
     29 H4         -0.5280    1.8123    0.9069 H         1 <0>         0.0724
     30 H5         -2.3909    1.0070   -0.4806 H         1 <0>         0.1303
     31 H6         -4.5098   -0.2440   -0.5023 H         1 <0>         0.1297
     32 H7         -4.5196   -2.6614   -0.0396 H         1 <0>         0.1279
     33 H8         -2.4132   -3.8306    0.4644 H         1 <0>         0.1313
     34 H9          0.2563   -2.6984    1.6929 H         1 <0>         0.1049
     35 H10        -0.0158   -3.8352    0.3516 H         1 <0>         0.1024
     36 H11         2.1733   -2.5216    0.2508 H         1 <0>         0.1343
     37 H12         0.2634   -2.7402   -1.9452 H         1 <0>         0.4015
     38 H13         4.1969   -2.7263   -4.4133 H         1 <0>         0.1634
     39 H14         4.2885   -3.4095   -7.2856 H         1 <0>         0.1354
     40 H15         2.8965   -4.0809   -9.1743 H         1 <0>         0.1372
     41 H16         0.4721   -4.3827   -8.8948 H         1 <0>         0.1403
@<TRIPOS>BOND
     1    1    2 1
     2    1   27 1
     3    1   28 1
     4    1   29 1
     5    2   11 am
     6    2    3 1
     7    3    8 ar
     8    3    4 ar
     9    4    5 ar
    10    4   30 1
    11    5    6 ar
    12    5   31 1
    13    6    7 ar
    14    6   32 1
    15    7    8 ar
    16    7   33 1
    17    8    9 1
    18    9   10 1
    19    9   34 1
    20    9   35 1
    21   10   11 1
    22   10   13 1
    23   10   36 1
    24   11   12 2
    25   13   14 am
    26   13   37 1
    27   14   15 2
    28   14   16 1
    29   16   24 1
    30   16   17 2
    31   17   18 1
    32   17   38 1
    33   18   23 ar
    34   18   19 ar
    35   19   20 ar
    36   19   39 1
    37   20   21 ar
    38   20   40 1
    39   21   22 ar
    40   21   41 1
    41   22   23 ar
    42   22   26 1
    43   23   24 1
    44   24   25 1
@<TRIPOS>MOLECULE
CHEMBL136168__1
   41    44     0     0     0
SMALL
USER_CHARGES

@<TRIPOS>ATOM
      1 C1         -0.0178    1.4608    0.0101 C.3       1 <0>         0.0664
      2 N1          0.0021   -0.0041    0.0020 N.am      1 <0>        -0.5518
      3 C2         -1.2031   -0.7117    0.0039 C.ar      1 <0>         0.1662
      4 C3         -2.3917   -0.0565    0.3017 C.ar      1 <0>        -0.1530
      5 C4         -3.5803   -0.7591    0.3180 C.ar      1 <0>        -0.0834
      6 C5         -3.5888   -2.1137    0.0393 C.ar      1 <0>        -0.1411
      7 C6         -2.4084   -2.7674   -0.2624 C.ar      1 <0>        -0.0791
      8 C7         -1.2173   -2.0681   -0.2876 C.ar      1 <0>        -0.1378
      9 C8          0.0630   -2.7755   -0.6510 C.3       1 <0>        -0.0885
     10 C9          1.2302   -2.1528    0.1153 C.3       1 <0>         0.1391
     11 C10         1.1792   -0.6529   -0.0127 C.2       1 <0>         0.5044
     12 O1          2.2100   -0.0239   -0.1263 O.2       1 <0>        -0.4936
     13 N2          1.1410   -2.5290    1.5283 N.am      1 <0>        -0.7179
     14 C11         2.2518   -2.5506    2.2913 C.2       1 <0>         0.5847
     15 O2          3.3284   -2.2578    1.8067 O.2       1 <0>        -0.4938
     16 C12         2.1623   -2.9282    3.7098 C.2       1 <0>         0.0162
     17 C13         3.2059   -2.9812    4.5782 C.2       1 <0>        -0.0926
     18 C14         2.6993   -3.3856    5.8370 C.ar      1 <0>        -0.1094
     19 C15         3.2932   -3.6094    7.0864 C.ar      1 <0>        -0.0495
     20 C16         2.5251   -4.0048    8.1423 C.ar      1 <0>        -0.1384
     21 C17         1.1561   -4.1889    7.9921 C.ar      1 <0>        -0.0707
     22 C18         0.5486   -3.9753    6.7743 C.ar      1 <0>        -0.0529
     23 C19         1.3121   -3.5707    5.6813 C.ar      1 <0>         0.1234
     24 N3          1.0029   -3.2798    4.3733 N.pl3     1 <0>        -0.5725
     25 H1          0.1168   -3.3176    3.9806 H         1 <0>         0.4189
     26 Cl1        -1.1629   -4.2094    6.6020 Cl        1 <0>        -0.0707
     27 H2          1.0048    1.8381    0.0023 H         1 <0>         0.0966
     28 H3         -0.5450    1.8219   -0.8730 H         1 <0>         0.0723
     29 H4         -0.5280    1.8123    0.9069 H         1 <0>         0.0702
     30 H5         -2.3859    1.0011    0.5206 H         1 <0>         0.1303
     31 H6         -4.5045   -0.2502    0.5489 H         1 <0>         0.1297
     32 H7         -4.5191   -2.6620    0.0577 H         1 <0>         0.1279
     33 H8         -2.4177   -3.8254   -0.4789 H         1 <0>         0.1313
     34 H9         -0.0195   -3.8310   -0.3915 H         1 <0>         0.1023
     35 H10         0.2394   -2.6787   -1.7223 H         1 <0>         0.1048
     36 H11         2.1706   -2.5184   -0.2972 H         1 <0>         0.1340
     37 H12         0.2825   -2.7625    1.9148 H         1 <0>         0.4015
     38 H13         4.2370   -2.7557    4.3493 H         1 <0>         0.1634
     39 H14         4.3566   -3.4697    7.2130 H         1 <0>         0.1354
     40 H15         2.9855   -4.1766    9.1040 H         1 <0>         0.1372
     41 H16         0.5627   -4.5028    8.8381 H         1 <0>         0.1404
@<TRIPOS>BOND
     1    1    2 1
     2    1   27 1
     3    1   28 1
     4    1   29 1
     5    2   11 am
     6    2    3 1
     7    3    8 ar
     8    3    4 ar
     9    4    5 ar
    10    4   30 1
    11    5    6 ar
    12    5   31 1
    13    6    7 ar
    14    6   32 1
    15    7    8 ar
    16    7   33 1
    17    8    9 1
    18    9   10 1
    19    9   34 1
    20    9   35 1
    21   10   11 1
    22   10   13 1
    23   10   36 1
    24   11   12 2
    25   13   14 am
    26   13   37 1
    27   14   15 2
    28   14   16 1
    29   16   24 1
    30   16   17 2
    31   17   18 1
    32   17   38 1
    33   18   23 ar
    34   18   19 ar
    35   19   20 ar
    36   19   39 1
    37   20   21 ar
    38   20   40 1
    39   21   22 ar
    40   21   41 1
    41   22   23 ar
    42   22   26 1
    43   23   24 1
    44   24   25 1
@<TRIPOS>MOLECULE
CHEMBL113736
   52    53     0     0     0
SMALL
USER_CHARGES

@<TRIPOS>ATOM
      1 C1          1.0054   -0.9795    0.0092 C.3       1 <0>        -0.1752
      2 C2         -0.0338    0.1409    0.0855 C.3       1 <0>         0.1061
      3 N1         -1.3792   -0.4380    0.0524 N.pl3     1 <0>        -0.5002
      4 C3         -1.9882   -0.8147    1.2176 C.2       1 <0>         0.2394
      5 C4         -3.3154   -1.0119    1.2704 C.2       1 <0>        -0.3337
      6 C5         -4.1888   -0.8205    0.0635 C.3       1 <0>         0.0740
      7 C6         -3.3648   -0.7900   -1.1924 C.2       1 <0>        -0.2345
      8 C7         -2.0287   -0.5958   -1.1504 C.2       1 <0>         0.0811
      9 C8         -1.2533   -0.5578   -2.4154 C.2       1 <0>         0.5829
     10 O1         -1.1528    0.4879   -3.0392 O.co2     1 <0>        -0.6891
     11 O2         -0.7154   -1.5723   -2.8329 O.co2     1 <0>        -0.6871
     12 C9         -4.0241   -0.9690   -2.4873 C.2       1 <0>         0.5245
     13 O3         -3.3542   -1.0596   -3.5079 O.co2     1 <0>        -0.6569
     14 O4         -5.2454   -1.0280   -2.5494 O.co2     1 <0>        -0.7092
     15 C10        -4.9394    0.4795    0.1958 C.ar      1 <0>        -0.0159
     16 C11        -4.2458    1.6710    0.2973 C.ar      1 <0>        -0.0895
     17 C12        -4.9341    2.8635    0.4186 C.ar      1 <0>        -0.1219
     18 C13        -6.3165    2.8654    0.4385 C.ar      1 <0>        -0.1328
     19 C14        -7.0110    1.6750    0.3371 C.ar      1 <0>        -0.1204
     20 C15        -6.3226    0.4814    0.2099 C.ar      1 <0>        -0.0210
     21 Cl1        -7.1944   -1.0138    0.0758 Cl        1 <0>        -0.0650
     22 C16        -3.9065   -1.4107    2.4946 C.2       1 <0>         0.5820
     23 O5         -3.2124   -1.5706    3.4821 O.2       1 <0>        -0.5846
     24 N2         -5.2370   -1.6133    2.5661 N.am      1 <0>        -0.7415
     25 C17        -5.8482   -2.0257    3.8320 C.3       1 <0>         0.1304
     26 C18        -7.3579   -2.1851    3.6414 C.3       1 <0>        -0.1109
     27 C19        -7.6306   -3.3330    2.6673 C.3       1 <0>        -0.1511
     28 C20        -8.0123   -2.4938    4.9895 C.3       1 <0>        -0.1391
     29 C21        -1.1579   -1.0118    2.4598 C.3       1 <0>        -0.1048
     30 H1          2.0064   -0.5488    0.0339 H         1 <0>         0.0567
     31 H2          0.8781   -1.6516    0.8579 H         1 <0>         0.0513
     32 H3          0.8721   -1.5362   -0.9183 H         1 <0>         0.0842
     33 H4          0.0995    0.6976    1.0131 H         1 <0>         0.0697
     34 H5          0.0935    0.8129   -0.7631 H         1 <0>         0.0933
     35 H6         -4.9031   -1.6417    0.0039 H         1 <0>         0.0755
     36 H7         -3.1659    1.6700    0.2822 H         1 <0>         0.1214
     37 H8         -4.3918    3.7940    0.4982 H         1 <0>         0.1172
     38 H9         -6.8538    3.7975    0.5336 H         1 <0>         0.1186
     39 H10        -8.0909    1.6766    0.3529 H         1 <0>         0.1217
     40 H11        -5.7899   -1.4859    1.7793 H         1 <0>         0.4020
     41 H12        -5.4197   -2.9763    4.1496 H         1 <0>         0.0584
     42 H13        -5.6559   -1.2684    4.5920 H         1 <0>         0.0575
     43 H14        -7.7729   -1.2609    3.2392 H         1 <0>         0.0761
     44 H15        -7.1643   -3.1131    1.7069 H         1 <0>         0.0605
     45 H16        -7.2156   -4.2572    3.0695 H         1 <0>         0.0549
     46 H17        -8.7061   -3.4466    2.5315 H         1 <0>         0.0535
     47 H18        -7.8181   -1.6760    5.6834 H         1 <0>         0.0542
     48 H19        -9.0879   -2.6073    4.8537 H         1 <0>         0.0550
     49 H20        -7.5973   -3.4179    5.3917 H         1 <0>         0.0548
     50 H21        -0.1210   -0.7503    2.2489 H         1 <0>         0.0532
     51 H22        -1.5389   -0.3729    3.2566 H         1 <0>         0.0884
     52 H23        -1.2134   -2.0545    2.7722 H         1 <0>         0.0862
@<TRIPOS>BOND
     1    1    2 1
     2    1   30 1
     3    1   31 1
     4    1   32 1
     5    2    3 1
     6    2   33 1
     7    2   34 1
     8    3    8 1
     9    3    4 1
    10    4    5 2
    11    4   29 1
    12    5    6 1
    13    5   22 1
    14    6    7 1
    15    6   15 1
    16    6   35 1
    17    7    8 2
    18    7   12 1
    19    8    9 1
    20    9   10 2
    21    9   11 1
    22   12   13 2
    23   12   14 1
    24   15   20 ar
    25   15   16 ar
    26   16   17 ar
    27   16   36 1
    28   17   18 ar
    29   17   37 1
    30   18   19 ar
    31   18   38 1
    32   19   20 ar
    33   19   39 1
    34   20   21 1
    35   22   23 2
    36   22   24 am
    37   24   25 1
    38   24   40 1
    39   25   26 1
    40   25   41 1
    41   25   42 1
    42   26   27 1
    43   26   28 1
    44   26   43 1
    45   27   44 1
    46   27   45 1
    47   27   46 1
    48   28   47 1
    49   28   48 1
    50   28   49 1
    51   29   50 1
    52   29   51 1
    53   29   52 1
@<TRIPOS>MOLECULE
CHEMBL113736__1
   52    53     0     0     0
SMALL
USER_CHARGES

@<TRIPOS>ATOM
      1 C1          0.0853    1.4054    0.3642 C.3       1 <0>        -0.1763
      2 C2          0.0447   -0.1206    0.2614 C.3       1 <0>         0.1062
      3 N1         -1.3462   -0.5651    0.1425 N.pl3     1 <0>        -0.5006
      4 C3         -2.0714   -0.8441    1.2680 C.2       1 <0>         0.2394
      5 C4         -3.1979   -1.5718    1.2005 C.2       1 <0>        -0.3334
      6 C5         -3.7059   -2.1181   -0.1032 C.3       1 <0>         0.0740
      7 C6         -3.0471   -1.4285   -1.2640 C.2       1 <0>        -0.2351
      8 C7         -1.9207   -0.6954   -1.1011 C.2       1 <0>         0.0818
      9 C8         -1.2967   -0.0314   -2.2727 C.2       1 <0>         0.5833
     10 O1         -1.5670    1.1317   -2.5314 O.co2     1 <0>        -0.6872
     11 O2         -0.5128   -0.6480   -2.9784 O.co2     1 <0>        -0.6886
     12 C9         -3.6381   -1.5471   -2.5982 C.2       1 <0>         0.5244
     13 O3         -3.1763   -0.9036   -3.5317 O.co2     1 <0>        -0.6573
     14 O4         -4.5941   -2.2898   -2.7803 O.co2     1 <0>        -0.7093
     15 C10        -3.4106   -3.5943   -0.1709 C.ar      1 <0>        -0.0144
     16 C11        -2.1049   -4.0422   -0.0973 C.ar      1 <0>        -0.0901
     17 C12        -1.8339   -5.3962   -0.1594 C.ar      1 <0>        -0.1211
     18 C13        -2.8684   -6.3033   -0.2951 C.ar      1 <0>        -0.1330
     19 C14        -4.1741   -5.8568   -0.3687 C.ar      1 <0>        -0.1193
     20 C15        -4.4465   -4.5018   -0.3009 C.ar      1 <0>        -0.0220
     21 Cl1        -6.0870   -3.9405   -0.3866 Cl        1 <0>        -0.0632
     22 C16        -3.9250   -1.8312    2.3884 C.2       1 <0>         0.5820
     23 O5         -3.5266   -1.3959    3.4533 O.2       1 <0>        -0.5844
     24 N2         -5.0579   -2.5597    2.3396 N.am      1 <0>        -0.7416
     25 C17        -5.8098   -2.8278    3.5680 C.3       1 <0>         0.1305
     26 C18        -7.0441   -3.6691    3.2370 C.3       1 <0>        -0.1112
     27 C19        -6.6034   -5.0417    2.7244 C.3       1 <0>        -0.1559
     28 C20        -7.8948   -3.8442    4.4966 C.3       1 <0>        -0.1391
     29 C21        -1.5993   -0.3279    2.6028 C.3       1 <0>        -0.1044
     30 H1          1.1201    1.7362    0.4526 H         1 <0>         0.0564
     31 H2         -0.3605    1.8418   -0.5297 H         1 <0>         0.0858
     32 H3         -0.4748    1.7255    1.2428 H         1 <0>         0.0509
     33 H4          0.6048   -0.4406   -0.6172 H         1 <0>         0.0927
     34 H5          0.4904   -0.5569    1.1553 H         1 <0>         0.0700
     35 H6         -4.7837   -1.9657   -0.1602 H         1 <0>         0.0757
     36 H7         -1.2963   -3.3341    0.0083 H         1 <0>         0.1214
     37 H8         -0.8136   -5.7456   -0.1023 H         1 <0>         0.1172
     38 H9         -2.6560   -7.3611   -0.3439 H         1 <0>         0.1187
     39 H10        -4.9822   -6.5655   -0.4749 H         1 <0>         0.1219
     40 H11        -5.3753   -2.9065    1.4911 H         1 <0>         0.4018
     41 H12        -5.1772   -3.3713    4.2698 H         1 <0>         0.0582
     42 H13        -6.1224   -1.8846    4.0158 H         1 <0>         0.0576
     43 H14        -7.6315   -3.1659    2.4690 H         1 <0>         0.0738
     44 H15        -5.9974   -4.9170    1.8270 H         1 <0>         0.0686
     45 H16        -6.0160   -5.5449    3.4925 H         1 <0>         0.0520
     46 H17        -7.4827   -5.6410    2.4886 H         1 <0>         0.0524
     47 H18        -8.2088   -2.8663    4.8618 H         1 <0>         0.0541
     48 H19        -8.7741   -4.4435    4.2608 H         1 <0>         0.0549
     49 H20        -7.3074   -4.3474    5.2647 H         1 <0>         0.0545
     50 H21        -0.6768    0.2369    2.4683 H         1 <0>         0.0532
     51 H22        -2.3630    0.3205    3.0323 H         1 <0>         0.0890
     52 H23        -1.4167   -1.1677    3.2732 H         1 <0>         0.0851
@<TRIPOS>BOND
     1    1    2 1
     2    1   30 1
     3    1   31 1
     4    1   32 1
     5    2    3 1
     6    2   33 1
     7    2   34 1
     8    3    8 1
     9    3    4 1
    10    4    5 2
    11    4   29 1
    12    5    6 1
    13    5   22 1
    14    6    7 1
    15    6   15 1
    16    6   35 1
    17    7    8 2
    18    7   12 1
    19    8    9 1
    20    9   10 2
    21    9   11 1
    22   12   13 2
    23   12   14 1
    24   15   20 ar
    25   15   16 ar
    26   16   17 ar
    27   16   36 1
    28   17   18 ar
    29   17   37 1
    30   18   19 ar
    31   18   38 1
    32   19   20 ar
    33   19   39 1
    34   20   21 1
    35   22   23 2
    36   22   24 am
    37   24   25 1
    38   24   40 1
    39   25   26 1
    40   25   41 1
    41   25   42 1
    42   26   27 1
    43   26   28 1
    44   26   43 1
    45   27   44 1
    46   27   45 1
    47   27   46 1
    48   28   47 1
    49   28   48 1
    50   28   49 1
    51   29   50 1
    52   29   51 1
    53   29   52 1
@<TRIPOS>MOLECULE
CHEMBL326950
   53    55     0     0     0
SMALL
USER_CHARGES

@<TRIPOS>ATOM
      1 C1         -0.4904   -1.0044    0.8476 C.3       1 <0>        -0.1752
      2 C2         -0.0545    0.1414   -0.0679 C.3       1 <0>         0.1059
      3 N1          0.6555   -0.4034   -1.2278 N.pl3     1 <0>        -0.4995
      4 C3         -0.0435   -0.7687   -2.3451 C.2       1 <0>         0.2403
      5 C4          0.5772   -0.9327   -3.5246 C.2       1 <0>        -0.3337
      6 C5          2.0558   -0.7153   -3.6736 C.3       1 <0>         0.0739
      7 C6          2.7312   -0.7011   -2.3317 C.2       1 <0>        -0.2333
      8 C7          2.0242   -0.5406   -1.1919 C.2       1 <0>         0.0802
      9 C8          2.7316   -0.5177    0.1126 C.2       1 <0>         0.5830
     10 O1          3.2053    0.5274    0.5324 O.co2     1 <0>        -0.6892
     11 O2          2.8402   -1.5438    0.7668 O.co2     1 <0>        -0.6871
     12 C9          4.1849   -0.8589   -2.2587 C.2       1 <0>         0.5243
     13 O3          4.7355   -0.9627   -1.1702 O.co2     1 <0>        -0.6570
     14 O4          4.8499   -0.8870   -3.2862 O.co2     1 <0>        -0.7088
     15 C10         2.2961    0.6027   -4.3636 C.ar      1 <0>        -0.0170
     16 C11         1.8430    1.7760   -3.7900 C.ar      1 <0>        -0.0896
     17 C12         2.0634    2.9850   -4.4227 C.ar      1 <0>        -0.1229
     18 C13         2.7370    3.0216   -5.6296 C.ar      1 <0>        -0.1327
     19 C14         3.1904    1.8493   -6.2040 C.ar      1 <0>        -0.1205
     20 C15         2.9751    0.6393   -5.5682 C.ar      1 <0>        -0.0192
     21 Cl1         3.5501   -0.8331   -6.2859 Cl        1 <0>        -0.0615
     22 C16        -0.1815   -1.3209   -4.6564 C.2       1 <0>         0.5832
     23 O5         -1.3810   -1.5016   -4.5523 O.2       1 <0>        -0.5834
     24 N2          0.4247   -1.4902   -5.8482 N.am      1 <0>        -0.7382
     25 C17        -0.3598   -1.8916   -7.0185 C.3       1 <0>         0.1638
     26 C18         0.5483   -2.0105   -8.2152 C.ar      1 <0>        -0.0961
     27 C19         0.7730   -0.9124   -9.0242 C.ar      1 <0>        -0.0965
     28 C20         1.6060   -1.0215  -10.1220 C.ar      1 <0>        -0.1215
     29 C21         2.2146   -2.2286  -10.4105 C.ar      1 <0>        -0.1189
     30 C22         1.9906   -3.3266   -9.6010 C.ar      1 <0>        -0.1232
     31 C23         1.1610   -3.2163   -8.5008 C.ar      1 <0>        -0.1007
     32 C24        -1.5311   -0.9909   -2.2513 C.3       1 <0>        -0.1052
     33 H1         -1.1512   -1.6760    0.2996 H         1 <0>         0.0514
     34 H2          0.3882   -1.5543    1.1848 H         1 <0>         0.0842
     35 H3         -1.0186   -0.5990    1.7106 H         1 <0>         0.0568
     36 H4         -0.9332    0.6914   -0.4051 H         1 <0>         0.0698
     37 H5          0.6063    0.8131    0.4801 H         1 <0>         0.0934
     38 H6          2.4772   -1.5181   -4.2787 H         1 <0>         0.0755
     39 H7          1.3165    1.7480   -2.8475 H         1 <0>         0.1210
     40 H8          1.7089    3.9014   -3.9744 H         1 <0>         0.1168
     41 H9          2.9085    3.9665   -6.1237 H         1 <0>         0.1180
     42 H10         3.7162    1.8780   -7.1469 H         1 <0>         0.1207
     43 H11         1.3803   -1.3463   -5.9310 H         1 <0>         0.4042
     44 H12        -0.8342   -2.8537   -6.8253 H         1 <0>         0.0677
     45 H13        -1.1260   -1.1421   -7.2168 H         1 <0>         0.0675
     46 H14         0.2975    0.0307   -8.7988 H         1 <0>         0.1215
     47 H15         1.7810   -0.1637  -10.7544 H         1 <0>         0.1195
     48 H16         2.8649   -2.3141  -11.2686 H         1 <0>         0.1175
     49 H17         2.4659   -4.2698   -9.8267 H         1 <0>         0.1196
     50 H18         0.9889   -4.0731   -7.8662 H         1 <0>         0.1224
     51 H19        -1.8707   -0.7548   -1.2428 H         1 <0>         0.0535
     52 H20        -2.0407   -0.3455   -2.9667 H         1 <0>         0.0886
     53 H21        -1.7577   -2.0330   -2.4764 H         1 <0>         0.0865
@<TRIPOS>BOND
     1    1    2 1
     2    1   33 1
     3    1   34 1
     4    1   35 1
     5    2    3 1
     6    2   36 1
     7    2   37 1
     8    3    8 1
     9    3    4 1
    10    4    5 2
    11    4   32 1
    12    5    6 1
    13    5   22 1
    14    6    7 1
    15    6   15 1
    16    6   38 1
    17    7    8 2
    18    7   12 1
    19    8    9 1
    20    9   10 2
    21    9   11 1
    22   12   13 2
    23   12   14 1
    24   15   20 ar
    25   15   16 ar
    26   16   17 ar
    27   16   39 1
    28   17   18 ar
    29   17   40 1
    30   18   19 ar
    31   18   41 1
    32   19   20 ar
    33   19   42 1
    34   20   21 1
    35   22   23 2
    36   22   24 am
    37   24   25 1
    38   24   43 1
    39   25   26 1
    40   25   44 1
    41   25   45 1
    42   26   31 ar
    43   26   27 ar
    44   27   28 ar
    45   27   46 1
    46   28   29 ar
    47   28   47 1
    48   29   30 ar
    49   29   48 1
    50   30   31 ar
    51   30   49 1
    52   31   50 1
    53   32   51 1
    54   32   52 1
    55   32   53 1
@<TRIPOS>MOLECULE
CHEMBL326950__1
   53    55     0     0     0
SMALL
USER_CHARGES

@<TRIPOS>ATOM
      1 C1         -0.3751    1.4016   -0.0788 C.3       1 <0>        -0.1763
      2 C2         -0.2420   -0.1225   -0.0931 C.3       1 <0>         0.1061
      3 N1          0.5629   -0.5316   -1.2467 N.pl3     1 <0>        -0.5000
      4 C3         -0.0451   -0.7962   -2.4429 C.2       1 <0>         0.2403
      5 C4          0.5877   -1.4952   -3.3991 C.2       1 <0>        -0.3335
      6 C5          1.9790   -2.0240   -3.1981 C.3       1 <0>         0.0742
      7 C6          2.6444   -1.3471   -2.0335 C.2       1 <0>        -0.2337
      8 C7          1.9291   -0.6430   -1.1251 C.2       1 <0>         0.0807
      9 C8          2.6215    0.0091    0.0142 C.2       1 <0>         0.5834
     10 O1          2.9625    1.1795   -0.0672 O.co2     1 <0>        -0.6872
     11 O2          2.8506   -0.6245    1.0334 O.co2     1 <0>        -0.6886
     12 C9          4.0971   -1.4462   -1.8806 C.2       1 <0>         0.5242
     13 O3          4.6647   -0.8112   -1.0012 O.co2     1 <0>        -0.6574
     14 O4          4.7441   -2.1640   -2.6321 O.co2     1 <0>        -0.7088
     15 C10         1.9131   -3.5069   -2.9381 C.ar      1 <0>        -0.0163
     16 C11         1.2039   -3.9877   -1.8533 C.ar      1 <0>        -0.0902
     17 C12         1.1433   -5.3478   -1.6147 C.ar      1 <0>        -0.1227
     18 C13         1.7919   -6.2282   -2.4607 C.ar      1 <0>        -0.1331
     19 C14         2.5012   -5.7488   -3.5455 C.ar      1 <0>        -0.1198
     20 C15         2.5575   -4.3876   -3.7881 C.ar      1 <0>        -0.0199
     21 Cl1         3.4428   -3.7850   -5.1544 Cl        1 <0>        -0.0615
     22 C16        -0.0737   -1.7403   -4.6278 C.2       1 <0>         0.5831
     23 O5         -1.2019   -1.3189   -4.8065 O.2       1 <0>        -0.5834
     24 N2          0.5460   -2.4400   -5.5988 N.am      1 <0>        -0.7382
     25 C17        -0.1379   -2.6935   -6.8693 C.3       1 <0>         0.1638
     26 C18         0.7649   -3.4902   -7.7755 C.ar      1 <0>        -0.0961
     27 C19         1.6331   -2.8395   -8.6321 C.ar      1 <0>        -0.1007
     28 C20         2.4612   -3.5703   -9.4634 C.ar      1 <0>        -0.1231
     29 C21         2.4215   -4.9519   -9.4377 C.ar      1 <0>        -0.1189
     30 C22         1.5540   -5.6026   -8.5805 C.ar      1 <0>        -0.1216
     31 C23         0.7289   -4.8718   -7.7462 C.ar      1 <0>        -0.0965
     32 C24        -1.4450   -0.2967   -2.6912 C.3       1 <0>        -0.1048
     33 H1          0.6150    1.8522   -0.0091 H         1 <0>         0.0858
     34 H2         -0.8611    1.7325   -0.9966 H         1 <0>         0.0509
     35 H3         -0.9740    1.7060    0.7795 H         1 <0>         0.0565
     36 H4          0.2440   -0.4534    0.8247 H         1 <0>         0.0928
     37 H5         -1.2321   -0.5730   -0.1628 H         1 <0>         0.0701
     38 H6          2.5647   -1.8444   -4.0997 H         1 <0>         0.0756
     39 H7          0.6974   -3.3004   -1.1918 H         1 <0>         0.1210
     40 H8          0.5894   -5.7229   -0.7668 H         1 <0>         0.1168
     41 H9          1.7445   -7.2908   -2.2736 H         1 <0>         0.1180
     42 H10         3.0081   -6.4366   -4.2061 H         1 <0>         0.1208
     43 H11         1.4449   -2.7758   -5.4564 H         1 <0>         0.4043
     44 H12        -1.0534   -3.2551   -6.6834 H         1 <0>         0.0675
     45 H13        -0.3842   -1.7443   -7.3450 H         1 <0>         0.0677
     46 H14         1.6641   -1.7601   -8.6522 H         1 <0>         0.1224
     47 H15         3.1389   -3.0619  -10.1331 H         1 <0>         0.1196
     48 H16         3.0680   -5.5228  -10.0877 H         1 <0>         0.1175
     49 H17         1.5227   -6.6820   -8.5607 H         1 <0>         0.1195
     50 H18         0.0538   -5.3802   -7.0737 H         1 <0>         0.1215
     51 H19        -1.7984    0.2452   -1.8140 H         1 <0>         0.0534
     52 H20        -1.4455    0.3692   -3.5542 H         1 <0>         0.0893
     53 H21        -2.1038   -1.1432   -2.8851 H         1 <0>         0.0854
@<TRIPOS>BOND
     1    1    2 1
     2    1   33 1
     3    1   34 1
     4    1   35 1
     5    2    3 1
     6    2   36 1
     7    2   37 1
     8    3    8 1
     9    3    4 1
    10    4    5 2
    11    4   32 1
    12    5    6 1
    13    5   22 1
    14    6    7 1
    15    6   15 1
    16    6   38 1
    17    7    8 2
    18    7   12 1
    19    8    9 1
    20    9   10 2
    21    9   11 1
    22   12   13 2
    23   12   14 1
    24   15   20 ar
    25   15   16 ar
    26   16   17 ar
    27   16   39 1
    28   17   18 ar
    29   17   40 1
    30   18   19 ar
    31   18   41 1
    32   19   20 ar
    33   19   42 1
    34   20   21 1
    35   22   23 2
    36   22   24 am
    37   24   25 1
    38   24   43 1
    39   25   26 1
    40   25   44 1
    41   25   45 1
    42   26   31 ar
    43   26   27 ar
    44   27   28 ar
    45   27   46 1
    46   28   29 ar
    47   28   47 1
    48   29   30 ar
    49   29   48 1
    50   30   31 ar
    51   30   49 1
    52   31   50 1
    53   32   51 1
    54   32   52 1
    55   32   53 1
@<TRIPOS>MOLECULE
CHEMBL342880
   41    44     0     0     0
SMALL
USER_CHARGES

@<TRIPOS>ATOM
      1 C1         -0.0178    1.4608    0.0101 C.3       1 <0>         0.0663
      2 N1          0.0021   -0.0041    0.0020 N.am      1 <0>        -0.5516
      3 C2         -1.2031   -0.7117    0.0039 C.ar      1 <0>         0.1656
      4 C3         -2.3946   -0.0532   -0.2745 C.ar      1 <0>        -0.1530
      5 C4         -3.5833   -0.7556   -0.2871 C.ar      1 <0>        -0.0832
      6 C5         -3.5891   -2.1133   -0.0240 C.ar      1 <0>        -0.1407
      7 C6         -2.4060   -2.7702    0.2593 C.ar      1 <0>        -0.0792
      8 C7         -1.2145   -2.0714    0.2799 C.ar      1 <0>        -0.1381
      9 C8          0.0693   -2.7829    0.6224 C.3       1 <0>        -0.0882
     10 C9          1.2289   -2.1513   -0.1482 C.3       1 <0>         0.1390
     11 C10         1.1792   -0.6529   -0.0127 C.2       1 <0>         0.5041
     12 O1          2.2121   -0.0251    0.0880 O.2       1 <0>        -0.4933
     13 N2          1.1257   -2.5112   -1.5645 N.am      1 <0>        -0.7177
     14 C11         2.2289   -2.5239   -2.3387 C.2       1 <0>         0.5840
     15 O2          3.3103   -2.2366   -1.8614 O.2       1 <0>        -0.4900
     16 C12         2.1253   -2.8851   -3.7605 C.2       1 <0>         0.0265
     17 C13         3.1621   -2.9394   -4.6371 C.2       1 <0>        -0.0923
     18 C14         2.6427   -3.3253   -5.8964 C.ar      1 <0>        -0.0839
     19 C15         3.2261   -3.5410   -7.1526 C.ar      1 <0>        -0.0534
     20 C16         2.4468   -3.9168   -8.2085 C.ar      1 <0>        -0.0381
     21 C17         1.0760   -4.0881   -8.0511 C.ar      1 <0>        -0.1138
     22 C18         0.4790   -3.8816   -6.8259 C.ar      1 <0>         0.1025
     23 C19         1.2553   -3.4982   -5.7331 C.ar      1 <0>         0.0854
     24 N3          0.9596   -3.2291   -4.4164 N.pl3     1 <0>        -0.5676
     25 H1          0.0774   -3.2719   -4.0154 H         1 <0>         0.4224
     26 F1         -0.8540   -4.0501   -6.6846 F         1 <0>        -0.1322
     27 Cl1         3.1739   -4.1828   -9.7623 Cl        1 <0>        -0.0528
     28 H2          1.0048    1.8381    0.0023 H         1 <0>         0.0968
     29 H3         -0.5450    1.8219   -0.8730 H         1 <0>         0.0702
     30 H4         -0.5280    1.8123    0.9069 H         1 <0>         0.0726
     31 H5         -2.3909    1.0070   -0.4806 H         1 <0>         0.1304
     32 H6         -4.5098   -0.2440   -0.5023 H         1 <0>         0.1299
     33 H7         -4.5196   -2.6614   -0.0396 H         1 <0>         0.1282
     34 H8         -2.4132   -3.8306    0.4644 H         1 <0>         0.1314
     35 H9          0.2563   -2.6984    1.6929 H         1 <0>         0.1053
     36 H10        -0.0158   -3.8352    0.3516 H         1 <0>         0.1026
     37 H11         2.1733   -2.5216    0.2508 H         1 <0>         0.1349
     38 H12         0.2634   -2.7402   -1.9452 H         1 <0>         0.4018
     39 H13         4.1969   -2.7260   -4.4133 H         1 <0>         0.1683
     40 H14         4.2899   -3.4098   -7.2849 H         1 <0>         0.1473
     41 H15         0.4734   -4.3854   -8.8965 H         1 <0>         0.1535
@<TRIPOS>BOND
     1    1    2 1
     2    1   28 1
     3    1   29 1
     4    1   30 1
     5    2   11 am
     6    2    3 1
     7    3    8 ar
     8    3    4 ar
     9    4    5 ar
    10    4   31 1
    11    5    6 ar
    12    5   32 1
    13    6    7 ar
    14    6   33 1
    15    7    8 ar
    16    7   34 1
    17    8    9 1
    18    9   10 1
    19    9   35 1
    20    9   36 1
    21   10   11 1
    22   10   13 1
    23   10   37 1
    24   11   12 2
    25   13   14 am
    26   13   38 1
    27   14   15 2
    28   14   16 1
    29   16   24 1
    30   16   17 2
    31   17   18 1
    32   17   39 1
    33   18   23 ar
    34   18   19 ar
    35   19   20 ar
    36   19   40 1
    37   20   21 ar
    38   20   27 1
    39   21   22 ar
    40   21   41 1
    41   22   23 ar
    42   22   26 1
    43   23   24 1
    44   24   25 1
@<TRIPOS>MOLECULE
CHEMBL342880__1
   41    44     0     0     0
SMALL
USER_CHARGES

@<TRIPOS>ATOM
      1 C1         -0.0178    1.4608    0.0101 C.3       1 <0>         0.0663
      2 N1          0.0021   -0.0041    0.0020 N.am      1 <0>        -0.5517
      3 C2         -1.2031   -0.7117    0.0039 C.ar      1 <0>         0.1658
      4 C3         -2.3917   -0.0565    0.3017 C.ar      1 <0>        -0.1530
      5 C4         -3.5803   -0.7591    0.3180 C.ar      1 <0>        -0.0832
      6 C5         -3.5888   -2.1137    0.0393 C.ar      1 <0>        -0.1408
      7 C6         -2.4084   -2.7674   -0.2624 C.ar      1 <0>        -0.0791
      8 C7         -1.2173   -2.0681   -0.2876 C.ar      1 <0>        -0.1383
      9 C8          0.0630   -2.7755   -0.6510 C.3       1 <0>        -0.0884
     10 C9          1.2302   -2.1528    0.1153 C.3       1 <0>         0.1390
     11 C10         1.1792   -0.6529   -0.0127 C.2       1 <0>         0.5041
     12 O1          2.2100   -0.0239   -0.1263 O.2       1 <0>        -0.4932
     13 N2          1.1410   -2.5290    1.5283 N.am      1 <0>        -0.7171
     14 C11         2.2518   -2.5506    2.2913 C.2       1 <0>         0.5841
     15 O2          3.3284   -2.2578    1.8067 O.2       1 <0>        -0.4902
     16 C12         2.1623   -2.9282    3.7099 C.2       1 <0>         0.0265
     17 C13         3.2059   -2.9812    4.5783 C.2       1 <0>        -0.0923
     18 C14         2.6996   -3.3850    5.8373 C.ar      1 <0>        -0.0839
     19 C15         3.2944   -3.6085    7.0868 C.ar      1 <0>        -0.0534
     20 C16         2.5267   -4.0036    8.1441 C.ar      1 <0>        -0.0381
     21 C17         1.1566   -4.1878    7.9946 C.ar      1 <0>        -0.1138
     22 C18         0.5487   -3.9748    6.7760 C.ar      1 <0>         0.1026
     23 C19         1.3128   -3.5700    5.6822 C.ar      1 <0>         0.0853
     24 N3          1.0031   -3.2798    4.3732 N.pl3     1 <0>        -0.5676
     25 H1          0.1169   -3.3177    3.9806 H         1 <0>         0.4224
     26 F1         -0.7831   -4.1576    6.6418 F         1 <0>        -0.1322
     27 Cl1         3.2678   -4.2791    9.6896 Cl        1 <0>        -0.0528
     28 H2          1.0048    1.8381    0.0023 H         1 <0>         0.0968
     29 H3         -0.5450    1.8219   -0.8730 H         1 <0>         0.0725
     30 H4         -0.5280    1.8123    0.9069 H         1 <0>         0.0704
     31 H5         -2.3859    1.0011    0.5206 H         1 <0>         0.1304
     32 H6         -4.5045   -0.2502    0.5489 H         1 <0>         0.1299
     33 H7         -4.5191   -2.6620    0.0577 H         1 <0>         0.1282
     34 H8         -2.4177   -3.8254   -0.4789 H         1 <0>         0.1314
     35 H9         -0.0195   -3.8310   -0.3915 H         1 <0>         0.1025
     36 H10         0.2394   -2.6787   -1.7223 H         1 <0>         0.1052
     37 H11         2.1706   -2.5184   -0.2972 H         1 <0>         0.1346
     38 H12         0.2825   -2.7625    1.9148 H         1 <0>         0.4019
     39 H13         4.2370   -2.7559    4.3492 H         1 <0>         0.1683
     40 H14         4.3579   -3.4688    7.2126 H         1 <0>         0.1473
     41 H15         0.5633   -4.5009    8.8410 H         1 <0>         0.1536
@<TRIPOS>BOND
     1    1    2 1
     2    1   28 1
     3    1   29 1
     4    1   30 1
     5    2   11 am
     6    2    3 1
     7    3    8 ar
     8    3    4 ar
     9    4    5 ar
    10    4   31 1
    11    5    6 ar
    12    5   32 1
    13    6    7 ar
    14    6   33 1
    15    7    8 ar
    16    7   34 1
    17    8    9 1
    18    9   10 1
    19    9   35 1
    20    9   36 1
    21   10   11 1
    22   10   13 1
    23   10   37 1
    24   11   12 2
    25   13   14 am
    26   13   38 1
    27   14   15 2
    28   14   16 1
    29   16   24 1
    30   16   17 2
    31   17   18 1
    32   17   39 1
    33   18   23 ar
    34   18   19 ar
    35   19   20 ar
    36   19   40 1
    37   20   21 ar
    38   20   27 1
    39   21   22 ar
    40   21   41 1
    41   22   23 ar
    42   22   26 1
    43   23   24 1
    44   24   25 1
@<TRIPOS>MOLECULE
CHEMBL133109
   46    49     0     0     0
SMALL
USER_CHARGES

@<TRIPOS>ATOM
      1 C1          0.0915    0.7739   -1.8147 C.ar      1 <0>        -0.1300
      2 C2          1.2115    1.6020   -1.7715 C.ar      1 <0>        -0.1214
      3 C3          2.4083    1.1389   -1.3172 C.ar      1 <0>        -0.0989
      4 C4          2.5199   -0.1933   -0.8840 C.ar      1 <0>        -0.0232
      5 C5          3.7403   -0.7035   -0.4086 C.ar      1 <0>        -0.1708
      6 C6          3.8157   -2.0011    0.0050 C.ar      1 <0>         0.1181
      7 C7          2.6869   -2.8364   -0.0380 C.ar      1 <0>         0.1326
      8 C8          1.4880   -2.3682   -0.4950 C.ar      1 <0>        -0.1021
      9 C9          1.3804   -1.0356   -0.9276 C.ar      1 <0>        -0.0645
     10 C10         0.1618   -0.5218   -1.4035 C.ar      1 <0>        -0.0996
     11 N1          2.7922   -4.1631    0.3917 N.am      1 <0>        -0.6340
     12 C11         1.9305   -5.0912   -0.0692 C.2       1 <0>         0.5680
     13 O1          1.1188   -4.7954   -0.9240 O.2       1 <0>        -0.5195
     14 C12         1.9726   -6.4717    0.4661 C.ar      1 <0>         0.0834
     15 C13         1.0829   -7.4281   -0.0187 C.ar      1 <0>        -0.1112
     16 C14         1.1348   -8.7155    0.4915 C.ar      1 <0>        -0.0836
     17 C15         2.0750   -9.0020    1.4692 C.ar      1 <0>        -0.1518
     18 C16         2.9288   -8.0014    1.9045 C.ar      1 <0>         0.1022
     19 N2          2.8613   -6.7888    1.3995 N.ar      1 <0>        -0.4541
     20 O2          4.9969   -2.4920    0.4637 O.3       1 <0>        -0.2571
     21 C17         6.0556   -1.6463    0.5291 C.ar      1 <0>         0.0466
     22 C18         7.0320   -1.6823   -0.4593 C.ar      1 <0>        -0.1530
     23 C19         8.1131   -0.8266   -0.4034 C.ar      1 <0>        -0.0852
     24 C20         8.2317    0.0813    0.6481 C.ar      1 <0>        -0.1113
     25 C21         7.2426    0.1205    1.6528 C.ar      1 <0>        -0.0632
     26 C22         6.1562   -0.7432    1.5818 C.ar      1 <0>        -0.1305
     27 C23         7.3582    1.0783    2.7723 C.2       1 <0>         0.5610
     28 O3          7.9882    0.7737    3.7748 O.co2     1 <0>        -0.6870
     29 O4          6.8240    2.1754    2.6958 O.co2     1 <0>        -0.6970
     30 C24         9.3864    0.9962    0.7098 C.2       1 <0>         0.5137
     31 O5         10.2000    1.0165   -0.2032 O.co2     1 <0>        -0.7144
     32 O6          9.5306    1.7348    1.6740 O.co2     1 <0>        -0.6363
     33 H1         -0.8473    1.1673   -2.1756 H         1 <0>         0.1161
     34 H2          1.1289    2.6263   -2.1037 H         1 <0>         0.1192
     35 H3          3.2679    1.7921   -1.2901 H         1 <0>         0.1308
     36 H4          4.6148   -0.0708   -0.3713 H         1 <0>         0.1485
     37 H5          0.6268   -3.0193   -0.5240 H         1 <0>         0.1571
     38 H6         -0.7145   -1.1518   -1.4425 H         1 <0>         0.1212
     39 H7          3.4855   -4.4153    1.0215 H         1 <0>         0.4285
     40 H8          0.3628   -7.1697   -0.7809 H         1 <0>         0.1494
     41 H9          0.4579   -9.4782    0.1359 H         1 <0>         0.1416
     42 H10         2.1411   -9.9955    1.8876 H         1 <0>         0.1405
     43 H11         3.6624   -8.2212    2.6660 H         1 <0>         0.1656
     44 H12         6.9443   -2.3842   -1.2754 H         1 <0>         0.1129
     45 H13         8.8683   -0.8603   -1.1747 H         1 <0>         0.1279
     46 H14         5.3928   -0.7156    2.3452 H         1 <0>         0.1147
@<TRIPOS>BOND
     1    1   10 ar
     2    1    2 ar
     3    1   33 1
     4    2    3 ar
     5    2   34 1
     6    3    4 ar
     7    3   35 1
     8    4    9 ar
     9    4    5 ar
    10    5    6 ar
    11    5   36 1
    12    6    7 ar
    13    6   20 1
    14    7    8 ar
    15    7   11 1
    16    8    9 ar
    17    8   37 1
    18    9   10 ar
    19   10   38 1
    20   11   12 am
    21   11   39 1
    22   12   13 2
    23   12   14 1
    24   14   19 ar
    25   14   15 ar
    26   15   16 ar
    27   15   40 1
    28   16   17 ar
    29   16   41 1
    30   17   18 ar
    31   17   42 1
    32   18   19 ar
    33   18   43 1
    34   20   21 1
    35   21   26 ar
    36   21   22 ar
    37   22   23 ar
    38   22   44 1
    39   23   24 ar
    40   23   45 1
    41   24   25 ar
    42   24   30 1
    43   25   26 ar
    44   25   27 1
    45   26   46 1
    46   27   28 2
    47   27   29 1
    48   30   31 2
    49   30   32 1
@<TRIPOS>MOLECULE
CHEMBL133923
   49    52     0     0     0
SMALL
USER_CHARGES

@<TRIPOS>ATOM
      1 C1          1.4842    1.1632   -0.3123 C.3       1 <0>        -0.1152
      2 C2          0.9001   -0.2217   -0.2032 C.ar      1 <0>        -0.0521
      3 C3          0.2484   -0.8030   -1.2800 C.ar      1 <0>        -0.1543
      4 C4         -0.2775   -2.0780   -1.1479 C.ar      1 <0>         0.1061
      5 N1         -0.1661   -2.7409   -0.0174 N.ar      1 <0>        -0.4574
      6 C5          0.4500   -2.2208    1.0370 C.ar      1 <0>         0.0882
      7 C6          1.0071   -0.9453    0.9737 C.ar      1 <0>        -0.1127
      8 C7          0.5509   -3.0052    2.2895 C.2       1 <0>         0.5697
      9 O1          1.1139   -2.5338    3.2579 O.2       1 <0>        -0.5216
     10 N2          0.0185   -4.2415    2.3551 N.am      1 <0>        -0.6366
     11 C8          0.1851   -5.0143    3.5088 C.ar      1 <0>         0.1280
     12 C9          0.2067   -4.4056    4.7316 C.ar      1 <0>        -0.0877
     13 C10         0.3735   -5.1803    5.8916 C.ar      1 <0>        -0.0672
     14 C11         0.3997   -4.5864    7.1653 C.ar      1 <0>        -0.0995
     15 C12         0.5627   -5.3661    8.2691 C.ar      1 <0>        -0.1298
     16 C13         0.7049   -6.7478    8.1569 C.ar      1 <0>        -0.1202
     17 C14         0.6849   -7.3579    6.9402 C.ar      1 <0>        -0.0983
     18 C15         0.5176   -6.5863    5.7775 C.ar      1 <0>        -0.0201
     19 C16         0.4914   -7.1841    4.5060 C.ar      1 <0>        -0.1719
     20 C17         0.3225   -6.4076    3.3969 C.ar      1 <0>         0.1200
     21 O2          0.2919   -6.9887    2.1688 O.3       1 <0>        -0.2544
     22 C18         0.3102   -8.3436    2.1048 C.ar      1 <0>         0.0494
     23 C19         1.4137   -8.9960    1.5680 C.ar      1 <0>        -0.1522
     24 C20         1.4435  -10.3738    1.4977 C.ar      1 <0>        -0.0835
     25 C21         0.3635  -11.1207    1.9667 C.ar      1 <0>        -0.1144
     26 C22        -0.7577  -10.4617    2.5125 C.ar      1 <0>        -0.0608
     27 C23        -0.7729   -9.0739    2.5818 C.ar      1 <0>        -0.1393
     28 C24        -1.9081  -11.2432    3.0126 C.2       1 <0>         0.5604
     29 O3         -2.7877  -11.5981    2.2412 O.co2     1 <0>        -0.6845
     30 O4         -1.9801  -11.5347    4.1978 O.co2     1 <0>        -0.6991
     31 C25         0.3933  -12.5930    1.8920 C.2       1 <0>         0.5137
     32 O5          1.4030  -13.1655    1.5064 O.co2     1 <0>        -0.7149
     33 O6         -0.5918  -13.2418    2.2156 O.co2     1 <0>        -0.6364
     34 H1          2.5133    1.0967   -0.6655 H         1 <0>         0.0785
     35 H2          0.8957    1.7514   -1.0163 H         1 <0>         0.0726
     36 H3          1.4663    1.6432    0.6662 H         1 <0>         0.0736
     37 H4          0.1512   -0.2670   -2.2125 H         1 <0>         0.1396
     38 H5         -0.7861   -2.5337   -1.9846 H         1 <0>         0.1656
     39 H6          1.5119   -0.5250    1.8311 H         1 <0>         0.1485
     40 H7         -0.4804   -4.5954    1.6022 H         1 <0>         0.4268
     41 H8          0.0963   -3.3339    4.8062 H         1 <0>         0.1489
     42 H9          0.2915   -3.5168    7.2677 H         1 <0>         0.1212
     43 H10         0.5825   -4.9070    9.2464 H         1 <0>         0.1163
     44 H11         0.8333   -7.3435    9.0485 H         1 <0>         0.1197
     45 H12         0.7970   -8.4297    6.8686 H         1 <0>         0.1319
     46 H13         0.6005   -8.2540    4.4074 H         1 <0>         0.1500
     47 H14         2.2525   -8.4215    1.2035 H         1 <0>         0.1133
     48 H15         2.3040  -10.8742    1.0786 H         1 <0>         0.1282
     49 H16        -1.6264   -8.5629    3.0022 H         1 <0>         0.1141
@<TRIPOS>BOND
     1    1    2 1
     2    1   34 1
     3    1   35 1
     4    1   36 1
     5    2    7 ar
     6    2    3 ar
     7    3    4 ar
     8    3   37 1
     9    4    5 ar
    10    4   38 1
    11    5    6 ar
    12    6    7 ar
    13    6    8 1
    14    7   39 1
    15    8    9 2
    16    8   10 am
    17   10   11 1
    18   10   40 1
    19   11   20 ar
    20   11   12 ar
    21   12   13 ar
    22   12   41 1
    23   13   18 ar
    24   13   14 ar
    25   14   15 ar
    26   14   42 1
    27   15   16 ar
    28   15   43 1
    29   16   17 ar
    30   16   44 1
    31   17   18 ar
    32   17   45 1
    33   18   19 ar
    34   19   20 ar
    35   19   46 1
    36   20   21 1
    37   21   22 1
    38   22   27 ar
    39   22   23 ar
    40   23   24 ar
    41   23   47 1
    42   24   25 ar
    43   24   48 1
    44   25   26 ar
    45   25   31 1
    46   26   27 ar
    47   26   28 1
    48   27   49 1
    49   28   29 2
    50   28   30 1
    51   31   32 2
    52   31   33 1
@<TRIPOS>MOLECULE
CHEMBL594021
   44    47     0     0     0
SMALL
USER_CHARGES

@<TRIPOS>ATOM
      1 C1         -0.0164    1.3571    0.0095 C.ar      1 <0>        -0.1063
      2 C2          1.1682    2.0913    0.0021 C.ar      1 <0>        -0.1171
      3 C3          2.3779    1.4681   -0.0127 C.ar      1 <0>        -0.0978
      4 C4          2.4369    0.0628   -0.0208 C.ar      1 <0>        -0.0579
      5 C5          3.6672   -0.6112   -0.0356 C.ar      1 <0>        -0.0517
      6 C6          3.6849   -1.9962   -0.0428 C.ar      1 <0>        -0.0391
      7 C7          2.4819   -2.7256   -0.0354 C.ar      1 <0>        -0.0907
      8 C8          1.2829   -2.0900   -0.0211 C.ar      1 <0>        -0.1038
      9 C9          1.2314   -0.6839   -0.0134 C.ar      1 <0>        -0.0382
     10 C10         0.0021   -0.0041    0.0020 C.ar      1 <0>        -0.1110
     11 C11         4.9754   -2.7121   -0.0589 C.2       1 <0>         0.1412
     12 N1          6.1453   -2.1638   -0.0617 N.2       1 <0>        -0.2549
     13 O1          7.1967   -3.1114   -0.0840 O.3       1 <0>        -0.1978
     14 C12         6.6429   -4.3782    0.3001 C.3       1 <0>         0.2424
     15 C13         5.1565   -4.2195   -0.0683 C.3       1 <0>        -0.1249
     16 C14         6.7912   -4.5998    1.7999 C.3       1 <0>         0.0930
     17 H1          6.2386   -5.4927    2.0924 H         1 <0>         0.0858
     18 C15         8.2752   -4.7820    2.1392 C.3       1 <0>         0.0843
     19 H2          8.8168   -3.8638    1.9122 H         1 <0>         0.0836
     20 C16         8.8398   -5.9316    1.2987 C.3       1 <0>         0.0506
     21 H3          8.3241   -6.8571    1.5549 H         1 <0>         0.0793
     22 C17         8.6292   -5.6234   -0.1860 C.3       1 <0>         0.0563
     23 H4          9.1705   -4.7146   -0.4490 H         1 <0>         0.0916
     24 O2          7.2335   -5.4376   -0.4387 O.3       1 <0>        -0.3269
     25 C18         9.1500   -6.7896   -1.0283 C.3       1 <0>         0.0829
     26 O3          9.0605   -6.4535   -2.4143 O.3       1 <0>        -0.5589
     27 O4         10.2367   -6.0748    1.5634 O.3       1 <0>        -0.5531
     28 O5          8.4143   -5.0887    3.5279 O.3       1 <0>        -0.5582
     29 O6          6.2755   -3.4677    2.5030 O.3       1 <0>        -0.5413
     30 H5         -0.9634    1.8760    0.0259 H         1 <0>         0.1258
     31 H6          1.1255    3.1704    0.0080 H         1 <0>         0.1263
     32 H7          3.2880    2.0496   -0.0187 H         1 <0>         0.1307
     33 H8          4.5929   -0.0548   -0.0417 H         1 <0>         0.1388
     34 H9          2.5130   -3.8051   -0.0416 H         1 <0>         0.1297
     35 H10         0.3679   -2.6636   -0.0159 H         1 <0>         0.1347
     36 H11        -0.9244   -0.5590    0.0082 H         1 <0>         0.1300
     37 H12         4.5186   -4.6910    0.6793 H         1 <0>         0.1158
     38 H13         4.9596   -4.6271   -1.0598 H         1 <0>         0.1202
     39 H14        10.1898   -6.9890   -0.7692 H         1 <0>         0.0665
     40 H15         8.5495   -7.6775   -0.8302 H         1 <0>         0.0604
     41 H16         9.3744   -7.1486   -3.0087 H         1 <0>         0.3853
     42 H17        10.6607   -6.7861    1.0642 H         1 <0>         0.3856
     43 H18         9.3295   -5.2172    3.8126 H         1 <0>         0.3941
     44 H19         6.3378   -3.5404    3.4652 H         1 <0>         0.3944
@<TRIPOS>BOND
     1    1   10 ar
     2    1    2 ar
     3    1   30 1
     4    2    3 ar
     5    2   31 1
     6    3    4 ar
     7    3   32 1
     8    4    9 ar
     9    4    5 ar
    10    5    6 ar
    11    5   33 1
    12    6    7 ar
    13    6   11 1
    14    7    8 ar
    15    7   34 1
    16    8    9 ar
    17    8   35 1
    18    9   10 ar
    19   10   36 1
    20   11   15 1
    21   11   12 2
    22   12   13 1
    23   13   14 1
    24   14   24 1
    25   14   15 1
    26   14   16 1
    27   15   37 1
    28   15   38 1
    29   16   17 1
    30   16   18 1
    31   16   29 1
    32   18   19 1
    33   18   20 1
    34   18   28 1
    35   20   21 1
    36   20   22 1
    37   20   27 1
    38   22   23 1
    39   22   24 1
    40   22   25 1
    41   25   26 1
    42   25   39 1
    43   25   40 1
    44   26   41 1
    45   27   42 1
    46   28   43 1
    47   29   44 1
@<TRIPOS>MOLECULE
CHEMBL326611
   43    45     0     0     0
SMALL
USER_CHARGES

@<TRIPOS>ATOM
      1 C1          0.3469    1.0449   -0.9714 C.ar      1 <0>        -0.1457
      2 C2          1.4956    1.8028   -0.8350 C.ar      1 <0>        -0.0902
      3 C3          2.6316    1.2487   -0.2755 C.ar      1 <0>        -0.1674
      4 C4          2.6220   -0.0699    0.1508 C.ar      1 <0>         0.1124
      5 C5          1.4647   -0.8340    0.0141 C.ar      1 <0>         0.1006
      6 C6          0.3285   -0.2706   -0.5486 C.ar      1 <0>        -0.1063
      7 N1          1.4489   -2.1669    0.4425 N.am      1 <0>        -0.6421
      8 C7          0.5151   -3.0158   -0.0307 C.2       1 <0>         0.5562
      9 O1         -0.2582   -2.6489   -0.8940 O.2       1 <0>        -0.5129
     10 C8          0.4313   -4.3929    0.4999 C.ar      1 <0>        -0.1249
     11 C9          1.3141   -4.8156    1.4954 C.ar      1 <0>        -0.0343
     12 C10         1.2302   -6.1018    1.9866 C.ar      1 <0>        -0.1175
     13 C11         0.2739   -6.9726    1.4944 C.ar      1 <0>        -0.0341
     14 C12        -0.6036   -6.5603    0.5076 C.ar      1 <0>        -0.0587
     15 C13        -0.5345   -5.2745    0.0120 C.ar      1 <0>         0.0023
     16 N2         -1.6226   -7.4989   -0.0136 N.pl3     1 <0>         0.0357
     17 O2         -1.6874   -8.6244    0.4230 O.2       1 <0>        -0.1587
     18 O3         -2.3902   -7.1399   -0.8760 O.3       1 <0>        -0.1534
     19 O4          3.7387   -0.6167    0.7005 O.3       1 <0>        -0.2612
     20 C14         4.8275    0.1778    0.8537 C.ar      1 <0>         0.0454
     21 C15         5.8751    0.0989   -0.0562 C.ar      1 <0>        -0.1535
     22 C16         6.9878    0.9018    0.0898 C.ar      1 <0>        -0.0850
     23 C17         7.0671    1.7989    1.1543 C.ar      1 <0>        -0.1102
     24 C18         6.0056    1.8817    2.0792 C.ar      1 <0>        -0.0631
     25 C19         4.8882    1.0716    1.9174 C.ar      1 <0>        -0.1309
     26 C20         6.0788    2.8289    3.2113 C.2       1 <0>         0.5606
     27 O5          6.6064    2.4882    4.2602 O.co2     1 <0>        -0.6876
     28 O6          5.6118    3.9532    3.0988 O.co2     1 <0>        -0.6957
     29 C21         8.2558    2.6569    1.3125 C.2       1 <0>         0.5130
     30 O7          9.1458    2.6294    0.4740 O.co2     1 <0>        -0.7136
     31 O8          8.3517    3.3960    2.2823 O.co2     1 <0>        -0.6356
     32 H1         -0.5394    1.4835   -1.4054 H         1 <0>         0.1238
     33 H2          1.5052    2.8305   -1.1670 H         1 <0>         0.1264
     34 H3          3.5271    1.8434   -0.1708 H         1 <0>         0.1432
     35 H4         -0.5701   -0.8600   -0.6560 H         1 <0>         0.1561
     36 H5          2.1099   -2.4794    1.0799 H         1 <0>         0.4156
     37 H6          2.0613   -4.1371    1.8799 H         1 <0>         0.1521
     38 H7          1.9125   -6.4300    2.7567 H         1 <0>         0.1583
     39 H8          0.2127   -7.9788    1.8821 H         1 <0>         0.1584
     40 H9         -1.2231   -4.9524   -0.7552 H         1 <0>         0.1677
     41 H10         5.8180   -0.5948   -0.8820 H         1 <0>         0.1127
     42 H11         7.7983    0.8350   -0.6209 H         1 <0>         0.1284
     43 H12         4.0699    1.1326    2.6196 H         1 <0>         0.1142
@<TRIPOS>BOND
     1    1    6 ar
     2    1    2 ar
     3    1   32 1
     4    2    3 ar
     5    2   33 1
     6    3    4 ar
     7    3   34 1
     8    4    5 ar
     9    4   19 1
    10    5    6 ar
    11    5    7 1
    12    6   35 1
    13    7    8 am
    14    7   36 1
    15    8    9 2
    16    8   10 1
    17   10   15 ar
    18   10   11 ar
    19   11   12 ar
    20   11   37 1
    21   12   13 ar
    22   12   38 1
    23   13   14 ar
    24   13   39 1
    25   14   15 ar
    26   14   16 1
    27   15   40 1
    28   16   17 2
    29   16   18 1
    30   19   20 1
    31   20   25 ar
    32   20   21 ar
    33   21   22 ar
    34   21   41 1
    35   22   23 ar
    36   22   42 1
    37   23   24 ar
    38   23   29 1
    39   24   25 ar
    40   24   26 1
    41   25   43 1
    42   26   27 2
    43   26   28 1
    44   29   30 2
    45   29   31 1
@<TRIPOS>MOLECULE
CHEMBL136572
   44    47     0     0     0
SMALL
USER_CHARGES

@<TRIPOS>ATOM
      1 C1         -0.0184    1.5028    0.0103 C.3       1 <0>        -0.1117
      2 C2          0.0021   -0.0041    0.0020 C.ar      1 <0>        -0.1141
      3 C3          0.0056   -0.6857   -1.2087 C.ar      1 <0>        -0.0808
      4 C4          0.0237   -2.0619   -1.2393 C.ar      1 <0>        -0.1313
      5 C5          0.0391   -2.7805   -0.0469 C.ar      1 <0>         0.1131
      6 C6          0.0360   -2.0872    1.1791 C.ar      1 <0>        -0.1173
      7 C7          0.0226   -0.6862    1.1835 C.ar      1 <0>        -0.0599
      8 C8          0.0540   -3.0626    2.2053 C.2       1 <0>        -0.0957
      9 C9          0.0673   -4.2855    1.6133 C.2       1 <0>         0.0093
     10 N1          0.0584   -4.1247    0.2413 N.pl3     1 <0>        -0.5799
     11 H1          0.0642   -4.8421   -0.4115 H         1 <0>         0.4156
     12 C10         0.0886   -5.5747    2.3204 C.2       1 <0>         0.5843
     13 O1          0.0956   -5.6014    3.5366 O.2       1 <0>        -0.4968
     14 N2          0.1003   -6.7268    1.6211 N.am      1 <0>        -0.7188
     15 C11         0.1216   -8.0111    2.3255 C.3       1 <0>         0.1391
     16 C12         0.7485   -9.0749    1.4239 C.3       1 <0>        -0.0884
     17 C13        -0.2049   -9.4210    0.3092 C.ar      1 <0>        -0.1373
     18 C14         0.2852   -9.7629   -0.9363 C.ar      1 <0>        -0.0788
     19 C15        -0.5871  -10.0931   -1.9569 C.ar      1 <0>        -0.1420
     20 C16        -1.9520  -10.0831   -1.7338 C.ar      1 <0>        -0.0829
     21 C17        -2.4479   -9.7369   -0.4925 C.ar      1 <0>        -0.1568
     22 C18        -1.5740   -9.3985    0.5334 C.ar      1 <0>         0.1672
     23 N3         -2.0766   -9.0156    1.7800 N.am      1 <0>        -0.5521
     24 C19        -1.2861   -8.4096    2.6824 C.2       1 <0>         0.5035
     25 O2         -1.7106   -8.1817    3.7955 O.2       1 <0>        -0.4923
     26 C20        -3.4805   -9.2775    2.1066 C.3       1 <0>         0.0694
     27 H2          1.0042    1.8801    0.0026 H         1 <0>         0.0690
     28 H3         -0.5455    1.8639   -0.8728 H         1 <0>         0.0656
     29 H4         -0.5286    1.8543    0.9071 H         1 <0>         0.0659
     30 H5         -0.0063   -0.1304   -2.1349 H         1 <0>         0.1289
     31 H6          0.0256   -2.5826   -2.1855 H         1 <0>         0.1238
     32 H7          0.0245   -0.1476    2.1196 H         1 <0>         0.1269
     33 H8          0.0566   -2.8693    3.2678 H         1 <0>         0.1577
     34 H9          0.0947   -6.7055    0.6513 H         1 <0>         0.4011
     35 H10         0.7129   -7.9152    3.2361 H         1 <0>         0.1336
     36 H11         1.6768   -8.6908    1.0011 H         1 <0>         0.1021
     37 H12         0.9603   -9.9687    2.0107 H         1 <0>         0.1042
     38 H13         1.3506   -9.7720   -1.1131 H         1 <0>         0.1313
     39 H14        -0.2020  -10.3591   -2.9303 H         1 <0>         0.1279
     40 H15        -2.6309  -10.3460   -2.5316 H         1 <0>         0.1297
     41 H16        -3.5139   -9.7291   -0.3192 H         1 <0>         0.1319
     42 H17        -3.5679  -10.2582    2.5741 H         1 <0>         0.0688
     43 H18        -3.8421   -8.5134    2.7948 H         1 <0>         0.0854
     44 H19        -4.0761   -9.2556    1.1940 H         1 <0>         0.0817
@<TRIPOS>BOND
     1    1    2 1
     2    1   27 1
     3    1   28 1
     4    1   29 1
     5    2    7 ar
     6    2    3 ar
     7    3    4 ar
     8    3   30 1
     9    4    5 ar
    10    4   31 1
    11    5   10 1
    12    5    6 ar
    13    6    7 ar
    14    6    8 1
    15    7   32 1
    16    8    9 2
    17    8   33 1
    18    9   10 1
    19    9   12 1
    20   10   11 1
    21   12   13 2
    22   12   14 am
    23   14   15 1
    24   14   34 1
    25   15   24 1
    26   15   16 1
    27   15   35 1
    28   16   17 1
    29   16   36 1
    30   16   37 1
    31   17   22 ar
    32   17   18 ar
    33   18   19 ar
    34   18   38 1
    35   19   20 ar
    36   19   39 1
    37   20   21 ar
    38   20   40 1
    39   21   22 ar
    40   21   41 1
    41   22   23 1
    42   23   24 am
    43   23   26 1
    44   24   25 2
    45   26   42 1
    46   26   43 1
    47   26   44 1
@<TRIPOS>MOLECULE
CHEMBL136572__1
   44    47     0     0     0
SMALL
USER_CHARGES

@<TRIPOS>ATOM
      1 C1         -0.0184    1.5028    0.0103 C.3       1 <0>        -0.1117
      2 C2          0.0021   -0.0041    0.0020 C.ar      1 <0>        -0.1141
      3 C3          0.0056   -0.6857   -1.2087 C.ar      1 <0>        -0.0808
      4 C4          0.0237   -2.0619   -1.2393 C.ar      1 <0>        -0.1314
      5 C5          0.0391   -2.7805   -0.0469 C.ar      1 <0>         0.1131
      6 C6          0.0360   -2.0872    1.1791 C.ar      1 <0>        -0.1173
      7 C7          0.0226   -0.6862    1.1835 C.ar      1 <0>        -0.0599
      8 C8          0.0540   -3.0626    2.2053 C.2       1 <0>        -0.0956
      9 C9          0.0673   -4.2855    1.6133 C.2       1 <0>         0.0093
     10 N1          0.0584   -4.1247    0.2413 N.pl3     1 <0>        -0.5799
     11 H1          0.0642   -4.8421   -0.4115 H         1 <0>         0.4156
     12 C10         0.0886   -5.5747    2.3204 C.2       1 <0>         0.5843
     13 O1          0.0956   -5.6014    3.5366 O.2       1 <0>        -0.4968
     14 N2          0.1003   -6.7268    1.6211 N.am      1 <0>        -0.7187
     15 C11         0.1216   -8.0111    2.3255 C.3       1 <0>         0.1391
     16 C12        -0.4862   -9.0916    1.4307 C.3       1 <0>        -0.0884
     17 C13         0.4640   -9.4119    0.3055 C.ar      1 <0>        -0.1371
     18 C14        -0.0304   -9.7672   -0.9346 C.ar      1 <0>        -0.0792
     19 C15         0.8393  -10.0734   -1.9649 C.ar      1 <0>        -0.1416
     20 C16         2.2058  -10.0268   -1.7567 C.ar      1 <0>        -0.0835
     21 C17         2.7057   -9.6680   -0.5206 C.ar      1 <0>        -0.1544
     22 C18         1.8343   -9.3525    0.5147 C.ar      1 <0>         0.1666
     23 N3          2.3400   -8.9559    1.7558 N.am      1 <0>        -0.5522
     24 C19         1.5433   -8.3713    2.6669 C.2       1 <0>         0.5039
     25 O2          1.9738   -8.1315    3.7752 O.2       1 <0>        -0.4927
     26 C20         3.7540   -9.1798    2.0670 C.3       1 <0>         0.0697
     27 H2          1.0042    1.8801    0.0026 H         1 <0>         0.0688
     28 H3         -0.5455    1.8639   -0.8728 H         1 <0>         0.0657
     29 H4         -0.5286    1.8543    0.9071 H         1 <0>         0.0660
     30 H5         -0.0063   -0.1304   -2.1349 H         1 <0>         0.1289
     31 H6          0.0256   -2.5826   -2.1855 H         1 <0>         0.1238
     32 H7          0.0245   -0.1476    2.1196 H         1 <0>         0.1269
     33 H8          0.0566   -2.8693    3.2678 H         1 <0>         0.1577
     34 H9          0.0947   -6.7055    0.6513 H         1 <0>         0.4011
     35 H10        -0.4621   -7.9311    3.2425 H         1 <0>         0.1337
     36 H11        -0.6673   -9.9908    2.0196 H         1 <0>         0.1043
     37 H12        -1.4292   -8.7329    1.0182 H         1 <0>         0.1021
     38 H13        -1.0970   -9.8056   -1.0995 H         1 <0>         0.1312
     39 H14         0.4509  -10.3499   -2.9340 H         1 <0>         0.1278
     40 H15         2.8827  -10.2716   -2.5618 H         1 <0>         0.1296
     41 H16         3.7729   -9.6325   -0.3586 H         1 <0>         0.1305
     42 H17         4.3364   -8.3129    1.7550 H         1 <0>         0.0657
     43 H18         3.8706   -9.3286    3.1405 H         1 <0>         0.0891
     44 H19         4.1069  -10.0646    1.5371 H         1 <0>         0.0811
@<TRIPOS>BOND
     1    1    2 1
     2    1   27 1
     3    1   28 1
     4    1   29 1
     5    2    7 ar
     6    2    3 ar
     7    3    4 ar
     8    3   30 1
     9    4    5 ar
    10    4   31 1
    11    5   10 1
    12    5    6 ar
    13    6    7 ar
    14    6    8 1
    15    7   32 1
    16    8    9 2
    17    8   33 1
    18    9   10 1
    19    9   12 1
    20   10   11 1
    21   12   13 2
    22   12   14 am
    23   14   15 1
    24   14   34 1
    25   15   24 1
    26   15   16 1
    27   15   35 1
    28   16   17 1
    29   16   36 1
    30   16   37 1
    31   17   22 ar
    32   17   18 ar
    33   18   19 ar
    34   18   38 1
    35   19   20 ar
    36   19   39 1
    37   20   21 ar
    38   20   40 1
    39   21   22 ar
    40   21   41 1
    41   22   23 1
    42   23   24 am
    43   23   26 1
    44   24   25 2
    45   26   42 1
    46   26   43 1
    47   26   44 1
@<TRIPOS>MOLECULE
CHEMBL133274
   52    55     0     0     0
SMALL
USER_CHARGES

@<TRIPOS>ATOM
      1 C1         -0.0150    2.6256   -1.6187 C.3       1 <0>        -0.1489
      2 C2          0.1314    1.2971   -0.8741 C.3       1 <0>        -0.0849
      3 C3          0.7808    0.2826   -1.7796 C.ar      1 <0>        -0.0485
      4 C4          0.0133   -0.5284   -2.6013 C.ar      1 <0>        -0.1512
      5 C5          0.6407   -1.4510   -3.4228 C.ar      1 <0>         0.1055
      6 N1          1.9508   -1.5662   -3.4322 N.ar      1 <0>        -0.4566
      7 C6          2.7219   -0.8094   -2.6612 C.ar      1 <0>         0.0876
      8 C7          2.1591    0.1431   -1.8142 C.ar      1 <0>        -0.1096
      9 C8          4.1932   -0.9749   -2.7058 C.2       1 <0>         0.5697
     10 O1          4.9039   -0.2846   -2.0020 O.2       1 <0>        -0.5215
     11 N2          4.7437   -1.8910   -3.5269 N.am      1 <0>        -0.6367
     12 C9          6.1348   -1.9909   -3.6305 C.ar      1 <0>         0.1281
     13 C10         6.9117   -1.7641   -2.5299 C.ar      1 <0>        -0.0877
     14 C11         8.3091   -1.8645   -2.6319 C.ar      1 <0>        -0.0672
     15 C12         9.1378   -1.6382   -1.5194 C.ar      1 <0>        -0.0995
     16 C13        10.4883   -1.7440   -1.6525 C.ar      1 <0>        -0.1297
     17 C14        11.0649   -2.0735   -2.8776 C.ar      1 <0>        -0.1203
     18 C15        10.2943   -2.2992   -3.9768 C.ar      1 <0>        -0.0983
     19 C16         8.8959   -2.2003   -3.8784 C.ar      1 <0>        -0.0201
     20 C17         8.0709   -2.4279   -4.9931 C.ar      1 <0>        -0.1719
     21 C18         6.7163   -2.3288   -4.8635 C.ar      1 <0>         0.1200
     22 O2          5.9205   -2.5548   -5.9416 O.3       1 <0>        -0.2545
     23 C19         6.5057   -2.9920   -7.0847 C.ar      1 <0>         0.0494
     24 C20         6.5304   -2.1721   -8.2067 C.ar      1 <0>        -0.1523
     25 C21         7.1229   -2.6062   -9.3749 C.ar      1 <0>        -0.0834
     26 C22         7.7018   -3.8732   -9.4356 C.ar      1 <0>        -0.1144
     27 C23         7.6788   -4.7075   -8.2987 C.ar      1 <0>        -0.0608
     28 C24         7.0832   -4.2563   -7.1270 C.ar      1 <0>        -0.1394
     29 C25         8.2894   -6.0523   -8.3516 C.2       1 <0>         0.5604
     30 O3          7.6422   -7.0015   -8.7698 O.co2     1 <0>        -0.6845
     31 O4          9.4417   -6.2156   -7.9772 O.co2     1 <0>        -0.6991
     32 C26         8.3349   -4.3390  -10.6832 C.2       1 <0>         0.5137
     33 O5          8.4375   -3.5804  -11.6371 O.co2     1 <0>        -0.7149
     34 O6          8.7574   -5.4839  -10.7641 O.co2     1 <0>        -0.6363
     35 H1          0.9695    2.9842   -1.9190 H         1 <0>         0.0593
     36 H2         -0.6341    2.4797   -2.5038 H         1 <0>         0.0575
     37 H3         -0.4847    3.3594   -0.9637 H         1 <0>         0.0615
     38 H4          0.7505    1.4430    0.0111 H         1 <0>         0.0788
     39 H5         -0.8532    0.9385   -0.5737 H         1 <0>         0.0779
     40 H6         -1.0633   -0.4420   -2.6009 H         1 <0>         0.1391
     41 H7          0.0457   -2.0846   -4.0639 H         1 <0>         0.1655
     42 H8          2.7880    0.7611   -1.1905 H         1 <0>         0.1479
     43 H9          4.1751   -2.4810   -4.0459 H         1 <0>         0.4268
     44 H10         6.4536   -1.5086   -1.5858 H         1 <0>         0.1489
     45 H11         8.7052   -1.3813   -0.5638 H         1 <0>         0.1211
     46 H12        11.1225   -1.5695   -0.7959 H         1 <0>         0.1163
     47 H13        12.1393   -2.1506   -2.9563 H         1 <0>         0.1197
     48 H14        10.7553   -2.5531   -4.9198 H         1 <0>         0.1319
     49 H15         8.5071   -2.6841   -5.9473 H         1 <0>         0.1499
     50 H16         6.0832   -1.1900   -8.1641 H         1 <0>         0.1133
     51 H17         7.1378   -1.9641  -10.2431 H         1 <0>         0.1281
     52 H18         7.0657   -4.8883   -6.2514 H         1 <0>         0.1141
@<TRIPOS>BOND
     1    1    2 1
     2    1   35 1
     3    1   36 1
     4    1   37 1
     5    2    3 1
     6    2   38 1
     7    2   39 1
     8    3    8 ar
     9    3    4 ar
    10    4    5 ar
    11    4   40 1
    12    5    6 ar
    13    5   41 1
    14    6    7 ar
    15    7    8 ar
    16    7    9 1
    17    8   42 1
    18    9   10 2
    19    9   11 am
    20   11   12 1
    21   11   43 1
    22   12   21 ar
    23   12   13 ar
    24   13   14 ar
    25   13   44 1
    26   14   19 ar
    27   14   15 ar
    28   15   16 ar
    29   15   45 1
    30   16   17 ar
    31   16   46 1
    32   17   18 ar
    33   17   47 1
    34   18   19 ar
    35   18   48 1
    36   19   20 ar
    37   20   21 ar
    38   20   49 1
    39   21   22 1
    40   22   23 1
    41   23   28 ar
    42   23   24 ar
    43   24   25 ar
    44   24   50 1
    45   25   26 ar
    46   25   51 1
    47   26   27 ar
    48   26   32 1
    49   27   28 ar
    50   27   29 1
    51   28   52 1
    52   29   30 2
    53   29   31 1
    54   32   33 2
    55   32   34 1
@<TRIPOS>MOLECULE
CHEMBL134793
   41    44     0     0     0
SMALL
USER_CHARGES

@<TRIPOS>ATOM
      1 C1         -0.0178    1.4608    0.0101 C.3       1 <0>         0.0663
      2 N1          0.0021   -0.0041    0.0020 N.am      1 <0>        -0.5518
      3 C2         -1.2031   -0.7117    0.0039 C.ar      1 <0>         0.1663
      4 C3         -2.3946   -0.0532   -0.2745 C.ar      1 <0>        -0.1532
      5 C4         -3.5833   -0.7556   -0.2871 C.ar      1 <0>        -0.0835
      6 C5         -3.5891   -2.1133   -0.0240 C.ar      1 <0>        -0.1413
      7 C6         -2.4060   -2.7702    0.2593 C.ar      1 <0>        -0.0793
      8 C7         -1.2145   -2.0714    0.2799 C.ar      1 <0>        -0.1376
      9 C8          0.0693   -2.7829    0.6224 C.3       1 <0>        -0.0882
     10 C9          1.2289   -2.1513   -0.1482 C.3       1 <0>         0.1391
     11 C10         1.1792   -0.6529   -0.0127 C.2       1 <0>         0.5041
     12 O1          2.2121   -0.0251    0.0880 O.2       1 <0>        -0.4932
     13 N2          1.1257   -2.5112   -1.5645 N.am      1 <0>        -0.7184
     14 C11         2.2289   -2.5239   -2.3387 C.2       1 <0>         0.5839
     15 O2          3.3103   -2.2366   -1.8614 O.2       1 <0>        -0.4935
     16 C12         2.1253   -2.8851   -3.7605 C.2       1 <0>         0.0140
     17 C13         3.1621   -2.9394   -4.6369 C.2       1 <0>        -0.0893
     18 C14         2.6425   -3.3256   -5.8961 C.ar      1 <0>        -0.1179
     19 C15         3.2249   -3.5420   -7.1519 C.ar      1 <0>        -0.0231
     20 C16         2.4443   -3.9185   -8.2065 C.ar      1 <0>        -0.1173
     21 C17         1.0740   -4.0898   -8.0469 C.ar      1 <0>        -0.0604
     22 C18         0.4790   -3.8832   -6.8228 C.ar      1 <0>        -0.1238
     23 C19         1.2543   -3.4987   -5.7322 C.ar      1 <0>         0.1279
     24 N3          0.9592   -3.2291   -4.4164 N.pl3     1 <0>        -0.5761
     25 H1          0.0771   -3.2715   -4.0153 H         1 <0>         0.4187
     26 Br1         3.2338   -4.2089   -9.9001 Br        1 <0>        -0.0475
     27 H2          1.0048    1.8381    0.0023 H         1 <0>         0.0967
     28 H3         -0.5450    1.8219   -0.8730 H         1 <0>         0.0701
     29 H4         -0.5280    1.8123    0.9069 H         1 <0>         0.0725
     30 H5         -2.3909    1.0070   -0.4806 H         1 <0>         0.1303
     31 H6         -4.5098   -0.2440   -0.5023 H         1 <0>         0.1297
     32 H7         -4.5196   -2.6614   -0.0396 H         1 <0>         0.1279
     33 H8         -2.4132   -3.8306    0.4644 H         1 <0>         0.1313
     34 H9          0.2563   -2.6984    1.6929 H         1 <0>         0.1048
     35 H10        -0.0158   -3.8352    0.3516 H         1 <0>         0.1023
     36 H11         2.1733   -2.5216    0.2508 H         1 <0>         0.1341
     37 H12         0.2634   -2.7402   -1.9452 H         1 <0>         0.4013
     38 H13         4.1969   -2.7258   -4.4133 H         1 <0>         0.1621
     39 H14         4.2886   -3.4108   -7.2852 H         1 <0>         0.1385
     40 H15         0.4703   -4.3877   -8.8914 H         1 <0>         0.1397
     41 H16        -0.5864   -4.0189   -6.7088 H         1 <0>         0.1337
@<TRIPOS>BOND
     1    1    2 1
     2    1   27 1
     3    1   28 1
     4    1   29 1
     5    2   11 am
     6    2    3 1
     7    3    8 ar
     8    3    4 ar
     9    4    5 ar
    10    4   30 1
    11    5    6 ar
    12    5   31 1
    13    6    7 ar
    14    6   32 1
    15    7    8 ar
    16    7   33 1
    17    8    9 1
    18    9   10 1
    19    9   34 1
    20    9   35 1
    21   10   11 1
    22   10   13 1
    23   10   36 1
    24   11   12 2
    25   13   14 am
    26   13   37 1
    27   14   15 2
    28   14   16 1
    29   16   24 1
    30   16   17 2
    31   17   18 1
    32   17   38 1
    33   18   23 ar
    34   18   19 ar
    35   19   20 ar
    36   19   39 1
    37   20   21 ar
    38   20   26 1
    39   21   22 ar
    40   21   40 1
    41   22   23 ar
    42   22   41 1
    43   23   24 1
    44   24   25 1
@<TRIPOS>MOLECULE
CHEMBL134793__1
   41    44     0     0     0
SMALL
USER_CHARGES

@<TRIPOS>ATOM
      1 C1         -0.0178    1.4608    0.0101 C.3       1 <0>         0.0663
      2 N1          0.0021   -0.0041    0.0020 N.am      1 <0>        -0.5519
      3 C2         -1.2031   -0.7117    0.0039 C.ar      1 <0>         0.1665
      4 C3         -2.3917   -0.0565    0.3017 C.ar      1 <0>        -0.1532
      5 C4         -3.5803   -0.7591    0.3180 C.ar      1 <0>        -0.0834
      6 C5         -3.5888   -2.1137    0.0393 C.ar      1 <0>        -0.1414
      7 C6         -2.4084   -2.7674   -0.2624 C.ar      1 <0>        -0.0792
      8 C7         -1.2173   -2.0681   -0.2876 C.ar      1 <0>        -0.1378
      9 C8          0.0630   -2.7755   -0.6510 C.3       1 <0>        -0.0884
     10 C9          1.2302   -2.1528    0.1153 C.3       1 <0>         0.1391
     11 C10         1.1792   -0.6529   -0.0127 C.2       1 <0>         0.5041
     12 O1          2.2100   -0.0239   -0.1263 O.2       1 <0>        -0.4932
     13 N2          1.1410   -2.5290    1.5283 N.am      1 <0>        -0.7178
     14 C11         2.2518   -2.5506    2.2913 C.2       1 <0>         0.5840
     15 O2          3.3285   -2.2578    1.8067 O.2       1 <0>        -0.4937
     16 C12         2.1623   -2.9282    3.7098 C.2       1 <0>         0.0140
     17 C13         3.2059   -2.9811    4.5782 C.2       1 <0>        -0.0892
     18 C14         2.6993   -3.3847    5.8372 C.ar      1 <0>        -0.1179
     19 C15         3.2929   -3.6077    7.0865 C.ar      1 <0>        -0.0231
     20 C16         2.5236   -4.0021    8.1430 C.ar      1 <0>        -0.1173
     21 C17         1.1539   -4.1850    7.9916 C.ar      1 <0>        -0.0604
     22 C18         0.5480   -3.9720    6.7739 C.ar      1 <0>        -0.1238
     23 C19         1.3117   -3.5694    5.6816 C.ar      1 <0>         0.1279
     24 N3          1.0028   -3.2798    4.3733 N.pl3     1 <0>        -0.5761
     25 H1          0.1167   -3.3181    3.9804 H         1 <0>         0.4187
     26 Br1         3.3284   -4.3028    9.8276 Br        1 <0>        -0.0475
     27 H2          1.0048    1.8381    0.0023 H         1 <0>         0.0967
     28 H3         -0.5450    1.8219   -0.8730 H         1 <0>         0.0723
     29 H4         -0.5280    1.8123    0.9069 H         1 <0>         0.0703
     30 H5         -2.3859    1.0011    0.5206 H         1 <0>         0.1303
     31 H6         -4.5045   -0.2502    0.5489 H         1 <0>         0.1297
     32 H7         -4.5191   -2.6620    0.0577 H         1 <0>         0.1279
     33 H8         -2.4177   -3.8254   -0.4789 H         1 <0>         0.1312
     34 H9         -0.0195   -3.8310   -0.3915 H         1 <0>         0.1023
     35 H10         0.2394   -2.6787   -1.7223 H         1 <0>         0.1047
     36 H11         2.1706   -2.5184   -0.2972 H         1 <0>         0.1339
     37 H12         0.2825   -2.7625    1.9148 H         1 <0>         0.4013
     38 H13         4.2371   -2.7561    4.3491 H         1 <0>         0.1621
     39 H14         4.3563   -3.4684    7.2133 H         1 <0>         0.1385
     40 H15         0.5593   -4.4976    8.8373 H         1 <0>         0.1397
     41 H16        -0.5168   -4.1168    6.6662 H         1 <0>         0.1337
@<TRIPOS>BOND
     1    1    2 1
     2    1   27 1
     3    1   28 1
     4    1   29 1
     5    2   11 am
     6    2    3 1
     7    3    8 ar
     8    3    4 ar
     9    4    5 ar
    10    4   30 1
    11    5    6 ar
    12    5   31 1
    13    6    7 ar
    14    6   32 1
    15    7    8 ar
    16    7   33 1
    17    8    9 1
    18    9   10 1
    19    9   34 1
    20    9   35 1
    21   10   11 1
    22   10   13 1
    23   10   36 1
    24   11   12 2
    25   13   14 am
    26   13   37 1
    27   14   15 2
    28   14   16 1
    29   16   24 1
    30   16   17 2
    31   17   18 1
    32   17   38 1
    33   18   23 ar
    34   18   19 ar
    35   19   20 ar
    36   19   39 1
    37   20   21 ar
    38   20   26 1
    39   21   22 ar
    40   21   40 1
    41   22   23 ar
    42   22   41 1
    43   23   24 1
    44   24   25 1
@<TRIPOS>MOLECULE
CHEMBL138069
   47    50     0     0     0
SMALL
USER_CHARGES

@<TRIPOS>ATOM
      1 C1         -0.0187    1.5258    0.0104 C.3       1 <0>        -0.1483
      2 C2          0.0021   -0.0041    0.0020 C.3       1 <0>        -0.0820
      3 C3          0.7074   -0.4901   -1.2379 C.ar      1 <0>        -0.1095
      4 C4         -0.0204   -0.7176   -2.3993 C.ar      1 <0>        -0.0780
      5 C5          0.6038   -1.1621   -3.5430 C.ar      1 <0>        -0.1322
      6 C6          1.9779   -1.3862   -3.5390 C.ar      1 <0>         0.1143
      7 C7          2.7136   -1.1544   -2.3605 C.ar      1 <0>        -0.1177
      8 C8          2.0557   -0.6972   -1.2110 C.ar      1 <0>        -0.0566
      9 C9          4.0649   -1.4625   -2.6499 C.2       1 <0>        -0.0954
     10 C10         4.1296   -1.8611   -3.9471 C.2       1 <0>         0.0090
     11 N1          2.8634   -1.8182   -4.4979 N.pl3     1 <0>        -0.5801
     12 H1          2.6364   -2.0546   -5.4108 H         1 <0>         0.4155
     13 C11         5.3527   -2.2720   -4.6527 C.2       1 <0>         0.5843
     14 O1          6.4204   -2.2720   -4.0697 O.2       1 <0>        -0.4970
     15 N2          5.2908   -2.6485   -5.9453 N.am      1 <0>        -0.7188
     16 C12         6.5092   -3.0578   -6.6483 C.3       1 <0>         0.1390
     17 C13         6.3324   -2.8256   -8.1490 C.3       1 <0>        -0.0884
     18 C14         5.3712   -3.8420   -8.7098 C.ar      1 <0>        -0.1374
     19 C15         4.5340   -3.4972   -9.7532 C.ar      1 <0>        -0.0787
     20 C16         3.6604   -4.4317  -10.2776 C.ar      1 <0>        -0.1419
     21 C17         3.6228   -5.7138   -9.7603 C.ar      1 <0>        -0.0829
     22 C18         4.4534   -6.0625   -8.7138 C.ar      1 <0>        -0.1568
     23 C19         5.3281   -5.1238   -8.1805 C.ar      1 <0>         0.1672
     24 N3          6.1448   -5.4666   -7.0995 N.am      1 <0>        -0.5522
     25 C20         6.7728   -4.5169   -6.3850 C.2       1 <0>         0.5036
     26 O2          7.5598   -4.8383   -5.5199 O.2       1 <0>        -0.4923
     27 C21         6.3185   -6.8764   -6.7410 C.3       1 <0>         0.0694
     28 H2          1.0039    1.9031    0.0027 H         1 <0>         0.0557
     29 H3         -0.5459    1.8868   -0.8726 H         1 <0>         0.0550
     30 H4         -0.5289    1.8773    0.9072 H         1 <0>         0.0574
     31 H5          0.5293   -0.3651    0.8851 H         1 <0>         0.0714
     32 H6         -1.0205   -0.3814    0.0098 H         1 <0>         0.0712
     33 H7         -1.0864   -0.5444   -2.4048 H         1 <0>         0.1282
     34 H8          0.0292   -1.3367   -4.4406 H         1 <0>         0.1235
     35 H9          2.6139   -0.5131   -0.3050 H         1 <0>         0.1262
     36 H10         4.8952   -1.3932   -1.9627 H         1 <0>         0.1575
     37 H11         4.4394   -2.6485   -6.4102 H         1 <0>         0.4010
     38 H12         7.3512   -2.4668   -6.2879 H         1 <0>         0.1336
     39 H13         5.9392   -1.8230   -8.3171 H         1 <0>         0.1021
     40 H14         7.2967   -2.9246   -8.6474 H         1 <0>         0.1042
     41 H15         4.5617   -2.4969  -10.1593 H         1 <0>         0.1313
     42 H16         3.0059   -4.1600  -11.0926 H         1 <0>         0.1279
     43 H17         2.9426   -6.4430  -10.1750 H         1 <0>         0.1297
     44 H18         4.4233   -7.0639   -8.3103 H         1 <0>         0.1319
     45 H19         7.1708   -7.2867   -7.2827 H         1 <0>         0.0688
     46 H20         6.4954   -6.9595   -5.6687 H         1 <0>         0.0854
     47 H21         5.4186   -7.4319   -7.0050 H         1 <0>         0.0817
@<TRIPOS>BOND
     1    1    2 1
     2    1   28 1
     3    1   29 1
     4    1   30 1
     5    2    3 1
     6    2   31 1
     7    2   32 1
     8    3    8 ar
     9    3    4 ar
    10    4    5 ar
    11    4   33 1
    12    5    6 ar
    13    5   34 1
    14    6   11 1
    15    6    7 ar
    16    7    8 ar
    17    7    9 1
    18    8   35 1
    19    9   10 2
    20    9   36 1
    21   10   11 1
    22   10   13 1
    23   11   12 1
    24   13   14 2
    25   13   15 am
    26   15   16 1
    27   15   37 1
    28   16   25 1
    29   16   17 1
    30   16   38 1
    31   17   18 1
    32   17   39 1
    33   17   40 1
    34   18   23 ar
    35   18   19 ar
    36   19   20 ar
    37   19   41 1
    38   20   21 ar
    39   20   42 1
    40   21   22 ar
    41   21   43 1
    42   22   23 ar
    43   22   44 1
    44   23   24 1
    45   24   25 am
    46   24   27 1
    47   25   26 2
    48   27   45 1
    49   27   46 1
    50   27   47 1
@<TRIPOS>MOLECULE
CHEMBL138069__1
   47    50     0     0     0
SMALL
USER_CHARGES

@<TRIPOS>ATOM
      1 C1         -0.0187    1.5258    0.0104 C.3       1 <0>        -0.1484
      2 C2          0.0021   -0.0041    0.0020 C.3       1 <0>        -0.0819
      3 C3          0.7074   -0.4901   -1.2379 C.ar      1 <0>        -0.1096
      4 C4         -0.0204   -0.7176   -2.3993 C.ar      1 <0>        -0.0780
      5 C5          0.6038   -1.1621   -3.5430 C.ar      1 <0>        -0.1323
      6 C6          1.9779   -1.3862   -3.5390 C.ar      1 <0>         0.1143
      7 C7          2.7136   -1.1544   -2.3605 C.ar      1 <0>        -0.1178
      8 C8          2.0557   -0.6972   -1.2110 C.ar      1 <0>        -0.0566
      9 C9          4.0649   -1.4625   -2.6499 C.2       1 <0>        -0.0954
     10 C10         4.1296   -1.8611   -3.9471 C.2       1 <0>         0.0090
     11 N1          2.8634   -1.8182   -4.4979 N.pl3     1 <0>        -0.5801
     12 H1          2.6364   -2.0546   -5.4108 H         1 <0>         0.4155
     13 C11         5.3527   -2.2720   -4.6527 C.2       1 <0>         0.5843
     14 O1          6.4204   -2.2720   -4.0697 O.2       1 <0>        -0.4969
     15 N2          5.2908   -2.6485   -5.9453 N.am      1 <0>        -0.7188
     16 C12         6.5092   -3.0578   -6.6483 C.3       1 <0>         0.1390
     17 C13         6.1415   -3.9944   -7.7994 C.3       1 <0>        -0.0884
     18 C14         5.4746   -3.2088   -8.8992 C.ar      1 <0>        -0.1371
     19 C15         4.4852   -3.7960   -9.6638 C.ar      1 <0>        -0.0792
     20 C16         3.8806   -3.0813  -10.6813 C.ar      1 <0>        -0.1417
     21 C17         4.2656   -1.7778  -10.9376 C.ar      1 <0>        -0.0835
     22 C18         5.2508   -1.1842  -10.1737 C.ar      1 <0>        -0.1544
     23 C19         5.8551   -1.8975   -9.1457 C.ar      1 <0>         0.1666
     24 N3          6.8278   -1.2856   -8.3502 N.am      1 <0>        -0.5523
     25 C20         7.2103   -1.8385   -7.1862 C.2       1 <0>         0.5040
     26 O2          8.1292   -1.3504   -6.5630 O.2       1 <0>        -0.4927
     27 C21         7.4373   -0.0280   -8.7898 C.3       1 <0>         0.0697
     28 H2          1.0039    1.9031    0.0027 H         1 <0>         0.0556
     29 H3         -0.5459    1.8868   -0.8726 H         1 <0>         0.0549
     30 H4         -0.5289    1.8773    0.9072 H         1 <0>         0.0575
     31 H5          0.5293   -0.3651    0.8851 H         1 <0>         0.0715
     32 H6         -1.0205   -0.3814    0.0098 H         1 <0>         0.0713
     33 H7         -1.0864   -0.5444   -2.4048 H         1 <0>         0.1282
     34 H8          0.0292   -1.3367   -4.4406 H         1 <0>         0.1235
     35 H9          2.6139   -0.5131   -0.3050 H         1 <0>         0.1262
     36 H10         4.8952   -1.3932   -1.9627 H         1 <0>         0.1575
     37 H11         4.4394   -2.6485   -6.4102 H         1 <0>         0.4011
     38 H12         7.1695   -3.5791   -5.9552 H         1 <0>         0.1336
     39 H13         7.0451   -4.4653   -8.1866 H         1 <0>         0.1043
     40 H14         5.4589   -4.7633   -7.4376 H         1 <0>         0.1021
     41 H15         4.1836   -4.8141   -9.4665 H         1 <0>         0.1312
     42 H16         3.1065   -3.5418  -11.2772 H         1 <0>         0.1279
     43 H17         3.7953   -1.2238  -11.7365 H         1 <0>         0.1296
     44 H18         5.5514   -0.1666  -10.3750 H         1 <0>         0.1305
     45 H19         6.8554    0.8107   -8.4077 H         1 <0>         0.0656
     46 H20         8.4569    0.0340   -8.4096 H         1 <0>         0.0891
     47 H21         7.4530    0.0068   -9.8791 H         1 <0>         0.0811
@<TRIPOS>BOND
     1    1    2 1
     2    1   28 1
     3    1   29 1
     4    1   30 1
     5    2    3 1
     6    2   31 1
     7    2   32 1
     8    3    8 ar
     9    3    4 ar
    10    4    5 ar
    11    4   33 1
    12    5    6 ar
    13    5   34 1
    14    6   11 1
    15    6    7 ar
    16    7    8 ar
    17    7    9 1
    18    8   35 1
    19    9   10 2
    20    9   36 1
    21   10   11 1
    22   10   13 1
    23   11   12 1
    24   13   14 2
    25   13   15 am
    26   15   16 1
    27   15   37 1
    28   16   25 1
    29   16   17 1
    30   16   38 1
    31   17   18 1
    32   17   39 1
    33   17   40 1
    34   18   23 ar
    35   18   19 ar
    36   19   20 ar
    37   19   41 1
    38   20   21 ar
    39   20   42 1
    40   21   22 ar
    41   21   43 1
    42   22   23 ar
    43   22   44 1
    44   23   24 1
    45   24   25 am
    46   24   27 1
    47   25   26 2
    48   27   45 1
    49   27   46 1
    50   27   47 1
@<TRIPOS>MOLECULE
CHEMBL372478
   58    62     0     0     0
SMALL
USER_CHARGES

@<TRIPOS>ATOM
      1 C1          0.0683    1.3394    0.7523 C.ar      1 <0>        -0.1294
      2 C2          1.2282    2.0690    0.5309 C.ar      1 <0>        -0.0806
      3 C3          2.4112    1.4276    0.2329 C.ar      1 <0>        -0.1461
      4 C4          2.4452    0.0390    0.1533 C.ar      1 <0>         0.1108
      5 C5          1.2705   -0.6998    0.3780 C.ar      1 <0>         0.0791
      6 C6          0.0794   -0.0235    0.6792 C.ar      1 <0>        -0.0551
      7 N1          1.2811   -2.0470    0.3064 N.2       1 <0>        -0.4805
      8 C7          2.3810   -2.6986    0.0264 C.2       1 <0>         0.3572
      9 C8          3.6350   -1.9612   -0.2161 C.2       1 <0>         0.5086
     10 O1          4.6621   -2.5601   -0.4765 O.2       1 <0>        -0.5044
     11 N2          3.6285   -0.6122   -0.1448 N.am      1 <0>        -0.5039
     12 C9          4.8570    0.1502   -0.3808 C.3       1 <0>         0.1095
     13 C10         5.5994    0.3437    0.9430 C.3       1 <0>        -0.0828
     14 C11         6.8631    1.1280    0.7002 C.ar      1 <0>         0.1283
     15 C12         7.0976    2.2852    1.4188 C.ar      1 <0>        -0.1664
     16 C13         8.2632    2.9992    1.1879 C.ar      1 <0>        -0.0715
     17 C14         9.1534    2.5204    0.2385 C.ar      1 <0>        -0.1739
     18 C15         8.8512    1.3558   -0.4410 C.ar      1 <0>         0.1051
     19 N3          7.7349    0.6994   -0.1914 N.ar      1 <0>        -0.4789
     20 N4          2.3675   -4.0812   -0.0417 N.pl3     1 <0>        -0.6294
     21 C16         1.1649   -4.7716    0.0721 C.ar      1 <0>         0.1910
     22 C17         0.0107   -4.2574   -0.5124 C.ar      1 <0>        -0.1203
     23 C18        -1.1803   -4.9380   -0.4017 C.ar      1 <0>        -0.0344
     24 C19        -1.2304   -6.1467    0.2986 C.ar      1 <0>        -0.1556
     25 C20        -0.0699   -6.6605    0.8844 C.ar      1 <0>        -0.0620
     26 C21         1.1193   -5.9781    0.7653 C.ar      1 <0>        -0.1529
     27 C22        -2.5059   -6.8786    0.4196 C.2       1 <0>         0.5642
     28 O2         -3.5147   -6.4305   -0.0901 O.2       1 <0>        -0.5346
     29 N5         -2.5526   -8.0440    1.0951 N.am      1 <0>        -0.7264
     30 C23        -3.8190   -8.7707    1.2153 C.3       1 <0>         0.2078
     31 C24        -3.6011  -10.0315    2.0115 C.2       1 <0>        -0.1760
     32 C25        -3.6991  -10.2236    3.3497 C.2       1 <0>        -0.1308
     33 C26        -3.4524  -11.4818    3.8661 C.2       1 <0>        -0.1636
     34 C27        -3.1198  -12.4864    3.0190 C.2       1 <0>        -0.1627
     35 S1         -3.1545  -11.6614    1.4362 S.3       1 <0>         0.0525
     36 H1         -0.8508    1.8548    0.9890 H         1 <0>         0.1341
     37 H2          1.2035    3.1469    0.5923 H         1 <0>         0.1333
     38 H3          3.3097    2.0017    0.0611 H         1 <0>         0.1334
     39 H4         -0.8290   -0.5810    0.8536 H         1 <0>         0.1408
     40 H5          5.4938   -0.3938   -1.0784 H         1 <0>         0.1132
     41 H6          4.6053    1.1236   -0.8019 H         1 <0>         0.0949
     42 H7          4.9625    0.8877    1.6405 H         1 <0>         0.0864
     43 H8          5.8510   -0.6297    1.3641 H         1 <0>         0.0913
     44 H9          6.3817    2.6290    2.1507 H         1 <0>         0.1358
     45 H10         8.4729    3.9070    1.7341 H         1 <0>         0.1369
     46 H11        10.0711    3.0513    0.0325 H         1 <0>         0.1372
     47 H12         9.5393    0.9763   -1.1819 H         1 <0>         0.1586
     48 H13         3.1965   -4.5687   -0.1686 H         1 <0>         0.4300
     49 H14         0.0500   -3.3233   -1.0531 H         1 <0>         0.1380
     50 H15        -2.0754   -4.5384   -0.8551 H         1 <0>         0.1402
     51 H16        -0.1055   -7.5939    1.4264 H         1 <0>         0.1286
     52 H17         2.0173   -6.3767    1.2140 H         1 <0>         0.1332
     53 H18        -1.7478   -8.4015    1.5018 H         1 <0>         0.4024
     54 H19        -4.5515   -8.1427    1.7224 H         1 <0>         0.0935
     55 H20        -4.1863   -9.0273    0.2217 H         1 <0>         0.0859
     56 H21        -3.9656   -9.4057    4.0028 H         1 <0>         0.1361
     57 H22        -3.5233  -11.6617    4.9287 H         1 <0>         0.1366
     58 H23        -2.8958  -13.5189    3.2431 H         1 <0>         0.1879
@<TRIPOS>BOND
     1    1    6 ar
     2    1    2 ar
     3    1   36 1
     4    2    3 ar
     5    2   37 1
     6    3    4 ar
     7    3   38 1
     8    4   11 1
     9    4    5 ar
    10    5    6 ar
    11    5    7 1
    12    6   39 1
    13    7    8 2
    14    8    9 1
    15    8   20 1
    16    9   10 2
    17    9   11 am
    18   11   12 1
    19   12   13 1
    20   12   40 1
    21   12   41 1
    22   13   14 1
    23   13   42 1
    24   13   43 1
    25   14   19 ar
    26   14   15 ar
    27   15   16 ar
    28   15   44 1
    29   16   17 ar
    30   16   45 1
    31   17   18 ar
    32   17   46 1
    33   18   19 ar
    34   18   47 1
    35   20   21 1
    36   20   48 1
    37   21   26 ar
    38   21   22 ar
    39   22   23 ar
    40   22   49 1
    41   23   24 ar
    42   23   50 1
    43   24   25 ar
    44   24   27 1
    45   25   26 ar
    46   25   51 1
    47   26   52 1
    48   27   28 2
    49   27   29 am
    50   29   30 1
    51   29   53 1
    52   30   31 1
    53   30   54 1
    54   30   55 1
    55   31   35 1
    56   31   32 2
    57   32   33 1
    58   32   56 1
    59   33   34 2
    60   33   57 1
    61   34   35 1
    62   34   58 1
@<TRIPOS>MOLECULE
CHEMBL196637
   43    46     0     0     0
SMALL
USER_CHARGES

@<TRIPOS>ATOM
      1 C1          0.6705    0.3210    3.5700 C.ar      1 <0>        -0.1275
      2 C2          1.7819    1.1363    3.4063 C.ar      1 <0>        -0.0806
      3 C3          2.8133    0.7537    2.5760 C.ar      1 <0>        -0.1422
      4 C4          2.7419   -0.4580    1.8960 C.ar      1 <0>         0.1068
      5 C5          1.6162   -1.2837    2.0619 C.ar      1 <0>         0.0791
      6 C6          0.5801   -0.8716    2.9125 C.ar      1 <0>        -0.0558
      7 N1          1.5266   -2.4629    1.4126 N.2       1 <0>        -0.4787
      8 C7          2.4815   -2.8671    0.6141 C.2       1 <0>         0.3565
      9 C8          3.6791   -2.0305    0.4121 C.2       1 <0>         0.5134
     10 N2          3.7729   -0.8494    1.0613 N.am      1 <0>        -0.6116
     11 O1          4.5714   -2.3995   -0.3288 O.2       1 <0>        -0.5120
     12 N3          2.3675   -4.0812   -0.0411 N.pl3     1 <0>        -0.6289
     13 C9          1.1906   -4.8169    0.0569 C.ar      1 <0>         0.1894
     14 C10        -0.0388   -4.1635    0.0603 C.ar      1 <0>        -0.1202
     15 C11        -1.2046   -4.8884    0.1567 C.ar      1 <0>        -0.0345
     16 C12        -1.1535   -6.2821    0.2513 C.ar      1 <0>        -0.1546
     17 C13         0.0824   -6.9353    0.2476 C.ar      1 <0>        -0.0621
     18 C14         1.2445   -6.2052    0.1457 C.ar      1 <0>        -0.1522
     19 C15        -2.4016   -7.0622    0.3552 C.2       1 <0>         0.5639
     20 O2         -3.4760   -6.4928    0.3587 O.2       1 <0>        -0.5343
     21 N4         -2.3508   -8.4060    0.4464 N.am      1 <0>        -0.7261
     22 C16        -3.5900   -9.1805    0.5496 C.3       1 <0>         0.2079
     23 C17        -3.2592  -10.6481    0.6382 C.2       1 <0>        -0.1763
     24 C18        -3.0353  -11.4078    1.7382 C.2       1 <0>        -0.1307
     25 C19        -2.7455  -12.7499    1.5783 C.2       1 <0>        -0.1636
     26 C20        -2.6939  -13.2666    0.3263 C.2       1 <0>        -0.1624
     27 S1         -3.0682  -11.8389   -0.6781 S.3       1 <0>         0.0523
     28 H1         -0.1283    0.6313    4.2272 H         1 <0>         0.1352
     29 H2          1.8387    2.0774    3.9331 H         1 <0>         0.1349
     30 H3          3.6748    1.3933    2.4531 H         1 <0>         0.1343
     31 H4         -0.2891   -1.4982    3.0476 H         1 <0>         0.1417
     32 H5          3.1082   -4.4191   -0.5686 H         1 <0>         0.4303
     33 H6         -0.0775   -3.0867   -0.0125 H         1 <0>         0.1380
     34 H7         -2.1580   -4.3810    0.1596 H         1 <0>         0.1406
     35 H8          0.1250   -8.0119    0.3209 H         1 <0>         0.1290
     36 H9          2.1995   -6.7095    0.1387 H         1 <0>         0.1335
     37 H10        -1.4937   -8.8602    0.4436 H         1 <0>         0.4024
     38 H11        -4.1352   -8.8764    1.4432 H         1 <0>         0.0935
     39 H12        -4.2061   -8.9994   -0.3311 H         1 <0>         0.0859
     40 H13        -3.0822  -10.9709    2.7248 H         1 <0>         0.1361
     41 H14        -2.5627  -13.3773    2.4382 H         1 <0>         0.1367
     42 H15        -2.4846  -14.2799    0.0168 H         1 <0>         0.1879
     43 H16         4.5518   -0.2836    0.9429 H         1 <0>         0.4252
@<TRIPOS>BOND
     1    1    6 ar
     2    1    2 ar
     3    1   28 1
     4    2    3 ar
     5    2   29 1
     6    3    4 ar
     7    3   30 1
     8    4   10 1
     9    4    5 ar
    10    5    6 ar
    11    5    7 1
    12    6   31 1
    13    7    8 2
    14    8    9 1
    15    8   12 1
    16    9   10 am
    17    9   11 2
    18   10   43 1
    19   12   13 1
    20   12   32 1
    21   13   18 ar
    22   13   14 ar
    23   14   15 ar
    24   14   33 1
    25   15   16 ar
    26   15   34 1
    27   16   17 ar
    28   16   19 1
    29   17   18 ar
    30   17   35 1
    31   18   36 1
    32   19   20 2
    33   19   21 am
    34   21   22 1
    35   21   37 1
    36   22   23 1
    37   22   38 1
    38   22   39 1
    39   23   27 1
    40   23   24 2
    41   24   25 1
    42   24   40 1
    43   25   26 2
    44   25   41 1
    45   26   27 1
    46   26   42 1
@<TRIPOS>MOLECULE
CHEMBL99889
   54    57     0     0     0
SMALL
USER_CHARGES

@<TRIPOS>ATOM
      1 C1         -0.3022    1.6189   -0.1057 C.ar      1 <0>        -0.0785
      2 C2          0.8303    2.4108   -0.0954 C.ar      1 <0>        -0.1424
      3 C3          2.0798    1.8293    0.0381 C.ar      1 <0>         0.1025
      4 C4          2.1930    0.4549    0.1612 C.ar      1 <0>        -0.1445
      5 C5          1.0591   -0.3350    0.1506 C.ar      1 <0>        -0.0769
      6 C6         -0.1879    0.2466    0.0173 C.ar      1 <0>        -0.0835
      7 C7         -1.4237   -0.6158    0.0060 C.3       1 <0>        -0.0875
      8 C8         -1.7447   -1.0281   -1.4320 C.3       1 <0>         0.1353
      9 H1         -0.8702   -1.5018   -1.8780 H         1 <0>         0.1189
     10 C9         -2.8965   -1.9999   -1.4308 C.2       1 <0>         0.5179
     11 O1         -4.0249   -1.6031   -1.6312 O.2       1 <0>        -0.5318
     12 N1         -2.6727   -3.3099   -1.2068 N.am      1 <0>        -0.6068
     13 C10        -1.3315   -3.7893   -0.8461 C.3       1 <0>         0.1013
     14 C11        -0.9304   -4.9068   -1.8141 C.3       1 <0>        -0.1315
     15 C12        -2.0087   -5.9928   -1.8080 C.3       1 <0>         0.1049
     16 C13        -3.3371   -5.3978   -2.2809 C.3       1 <0>        -0.1686
     17 C14        -3.7666   -4.2851   -1.3127 C.3       1 <0>         0.1136
     18 O2         -1.6223   -7.0523   -2.6857 O.3       1 <0>        -0.5653
     19 N2         -2.1078    0.1585   -2.2108 N.am      1 <0>        -0.7158
     20 C15        -1.1455    0.9122   -2.7786 C.2       1 <0>         0.5874
     21 O3          0.0244    0.6072   -2.6446 O.2       1 <0>        -0.4962
     22 C16        -1.5100    2.1033   -3.5604 C.2       1 <0>         0.0179
     23 C17        -0.6344    2.9352   -4.1828 C.2       1 <0>        -0.0942
     24 C18        -1.3849    3.9523   -4.8206 C.ar      1 <0>        -0.1108
     25 C19        -1.0330    5.0644   -5.5968 C.ar      1 <0>        -0.0482
     26 C20        -2.0071    5.8861   -6.0867 C.ar      1 <0>        -0.0606
     27 C21        -3.3479    5.6298   -5.8224 C.ar      1 <0>        -0.0776
     28 C22        -3.7179    4.5436   -5.0619 C.ar      1 <0>        -0.1174
     29 C23        -2.7426    3.6910   -4.5518 C.ar      1 <0>         0.1182
     30 N3         -2.7974    2.5514   -3.7839 N.pl3     1 <0>        -0.5760
     31 H2         -3.6068    2.1327   -3.4515 H         1 <0>         0.4200
     32 Cl1        -1.5677    7.2635   -7.0476 Cl        1 <0>        -0.0685
     33 F1          3.1877    2.6025    0.0478 F         1 <0>        -0.1412
     34 H3         -1.2772    2.0725   -0.2053 H         1 <0>         0.1205
     35 H4          0.7408    3.4827   -0.1918 H         1 <0>         0.1310
     36 H5          3.1671    0.0002    0.2650 H         1 <0>         0.1334
     37 H6          1.1472   -1.4072    0.2463 H         1 <0>         0.1277
     38 H7         -1.2504   -1.5069    0.6094 H         1 <0>         0.0914
     39 H8         -2.2621   -0.0548    0.4189 H         1 <0>         0.0871
     40 H9         -0.6180   -2.9685   -0.9199 H         1 <0>         0.0959
     41 H10        -1.3433   -4.1754    0.1731 H         1 <0>         0.0826
     42 H11        -0.8309   -4.4987   -2.8199 H         1 <0>         0.0774
     43 H12         0.0206   -5.3367   -1.4996 H         1 <0>         0.0893
     44 H13        -2.1251   -6.3833   -0.7970 H         1 <0>         0.0595
     45 H14        -3.2148   -4.9851   -3.2823 H         1 <0>         0.0767
     46 H15        -4.0989   -6.1771   -2.2986 H         1 <0>         0.0816
     47 H16        -3.9729   -4.7108   -0.3308 H         1 <0>         0.0751
     48 H17        -4.6603   -3.7916   -1.6944 H         1 <0>         0.0983
     49 H18        -2.2605   -7.7773   -2.7318 H         1 <0>         0.3813
     50 H19        -3.0407    0.4016   -2.3177 H         1 <0>         0.4055
     51 H20         0.4413    2.8383   -4.1893 H         1 <0>         0.1595
     52 H21         0.0060    5.2713   -5.8067 H         1 <0>         0.1380
     53 H22        -4.1064    6.2894   -6.2172 H         1 <0>         0.1400
     54 H23        -4.7619    4.3533   -4.8615 H         1 <0>         0.1340
@<TRIPOS>BOND
     1    1    6 ar
     2    1    2 ar
     3    1   34 1
     4    2    3 ar
     5    2   35 1
     6    3    4 ar
     7    3   33 1
     8    4    5 ar
     9    4   36 1
    10    5    6 ar
    11    5   37 1
    12    6    7 1
    13    7    8 1
    14    7   38 1
    15    7   39 1
    16    8    9 1
    17    8   10 1
    18    8   19 1
    19   10   11 2
    20   10   12 am
    21   12   17 1
    22   12   13 1
    23   13   14 1
    24   13   40 1
    25   13   41 1
    26   14   15 1
    27   14   42 1
    28   14   43 1
    29   15   16 1
    30   15   18 1
    31   15   44 1
    32   16   17 1
    33   16   45 1
    34   16   46 1
    35   17   47 1
    36   17   48 1
    37   18   49 1
    38   19   20 am
    39   19   50 1
    40   20   21 2
    41   20   22 1
    42   22   30 1
    43   22   23 2
    44   23   24 1
    45   23   51 1
    46   24   29 ar
    47   24   25 ar
    48   25   26 ar
    49   25   52 1
    50   26   27 ar
    51   26   32 1
    52   27   28 ar
    53   27   53 1
    54   28   29 ar
    55   28   54 1
    56   29   30 1
    57   30   31 1
@<TRIPOS>MOLECULE
CHEMBL194807
   46    49     0     0     0
SMALL
USER_CHARGES

@<TRIPOS>ATOM
      1 C1          0.1189    1.4265    0.9377 C.3       1 <0>         0.0636
      2 N1          0.2636   -0.0222    1.1006 N.am      1 <0>        -0.5065
      3 C2         -0.5975   -0.7249    1.9238 C.ar      1 <0>         0.1078
      4 C3         -1.6120   -0.0607    2.6059 C.ar      1 <0>        -0.1428
      5 C4         -2.4661   -0.7683    3.4240 C.ar      1 <0>        -0.0810
      6 C5         -2.3222   -2.1408    3.5731 C.ar      1 <0>        -0.1286
      7 C6         -1.3340   -2.8121    2.9131 C.ar      1 <0>        -0.0555
      8 C7         -0.4519   -2.1151    2.0748 C.ar      1 <0>         0.0786
      9 N2          0.5245   -2.7792    1.4223 N.2       1 <0>        -0.4795
     10 C8          1.3587   -2.1489    0.6351 C.2       1 <0>         0.3565
     11 C9          1.2366   -0.6915    0.4445 C.2       1 <0>         0.5090
     12 O1          2.0049   -0.0991   -0.2904 O.2       1 <0>        -0.5133
     13 N3          2.3527   -2.8516   -0.0241 N.pl3     1 <0>        -0.6294
     14 C10         2.3942   -4.2400    0.0576 C.ar      1 <0>         0.1906
     15 C11         1.2101   -4.9722    0.0469 C.ar      1 <0>        -0.1204
     16 C12         1.2478   -6.3455    0.1270 C.ar      1 <0>        -0.0340
     17 C13         2.4768   -7.0053    0.2193 C.ar      1 <0>        -0.1554
     18 C14         3.6639   -6.2674    0.2299 C.ar      1 <0>        -0.0618
     19 C15         3.6199   -4.8945    0.1441 C.ar      1 <0>        -0.1527
     20 C16         2.5207   -8.4776    0.3059 C.2       1 <0>         0.5650
     21 O2          1.4873   -9.1182    0.2971 O.2       1 <0>        -0.5339
     22 N4          3.7063   -9.1123    0.3948 N.am      1 <0>        -0.7272
     23 C17         3.7500  -10.5741    0.4808 C.3       1 <0>         0.2042
     24 C18         5.1837  -11.0295    0.5704 C.2       1 <0>        -0.0430
     25 C19         5.8824  -11.2097    1.7057 C.2       1 <0>        -0.1806
     26 C20         7.1756  -11.6379    1.3272 C.2       1 <0>        -0.2182
     27 C21         7.1898  -11.6937   -0.0167 C.2       1 <0>        -0.0263
     28 O3          5.9789  -11.3297   -0.4694 O.3       1 <0>        -0.1712
     29 H1          0.8820    1.7929    0.2510 H         1 <0>         0.1030
     30 H2         -0.8693    1.6500    0.5355 H         1 <0>         0.0820
     31 H3          0.2362    1.9144    1.9053 H         1 <0>         0.0821
     32 H4         -1.7296    1.0071    2.4949 H         1 <0>         0.1343
     33 H5         -3.2529   -0.2512    3.9531 H         1 <0>         0.1343
     34 H6         -2.9985   -2.6826    4.2177 H         1 <0>         0.1349
     35 H7         -1.2315   -3.8802    3.0363 H         1 <0>         0.1414
     36 H8          3.0203   -2.3762   -0.5429 H         1 <0>         0.4300
     37 H9          0.2609   -4.4619   -0.0241 H         1 <0>         0.1380
     38 H10         0.3289   -6.9130    0.1190 H         1 <0>         0.1407
     39 H11         4.6149   -6.7743    0.3014 H         1 <0>         0.1289
     40 H12         4.5369   -4.3241    0.1480 H         1 <0>         0.1334
     41 H13         4.5307   -8.6012    0.4019 H         1 <0>         0.4031
     42 H14         3.2084  -10.9022    1.3681 H         1 <0>         0.1022
     43 H15         3.2870  -11.0043   -0.4072 H         1 <0>         0.0880
     44 H16         5.5244  -11.0562    2.7130 H         1 <0>         0.1518
     45 H17         7.9949  -11.8744    1.9899 H         1 <0>         0.1518
     46 H18         8.0311  -11.9857   -0.6278 H         1 <0>         0.2061
@<TRIPOS>BOND
     1    1    2 1
     2    1   29 1
     3    1   30 1
     4    1   31 1
     5    2   11 am
     6    2    3 1
     7    3    8 ar
     8    3    4 ar
     9    4    5 ar
    10    4   32 1
    11    5    6 ar
    12    5   33 1
    13    6    7 ar
    14    6   34 1
    15    7    8 ar
    16    7   35 1
    17    8    9 1
    18    9   10 2
    19   10   11 1
    20   10   13 1
    21   11   12 2
    22   13   14 1
    23   13   36 1
    24   14   19 ar
    25   14   15 ar
    26   15   16 ar
    27   15   37 1
    28   16   17 ar
    29   16   38 1
    30   17   18 ar
    31   17   20 1
    32   18   19 ar
    33   18   39 1
    34   19   40 1
    35   20   21 2
    36   20   22 am
    37   22   23 1
    38   22   41 1
    39   23   24 1
    40   23   42 1
    41   23   43 1
    42   24   28 1
    43   24   25 2
    44   25   26 1
    45   25   44 1
    46   26   27 2
    47   26   45 1
    48   27   28 1
    49   27   46 1
@<TRIPOS>MOLECULE
CHEMBL196687
   49    52     0     0     0
SMALL
USER_CHARGES

@<TRIPOS>ATOM
      1 C1          0.1728    0.3164    0.8059 C.3       1 <0>        -0.1702
      2 C2          0.2932   -0.8857   -0.1329 C.3       1 <0>         0.0944
      3 N1         -1.0084   -1.5482   -0.2475 N.am      1 <0>        -0.5028
      4 C3         -1.3606   -2.5586    0.6289 C.ar      1 <0>         0.1107
      5 C4         -0.4800   -2.9556    1.6301 C.ar      1 <0>        -0.1453
      6 C5         -0.8388   -3.9630    2.4996 C.ar      1 <0>        -0.0808
      7 C6         -2.0739   -4.5858    2.3843 C.ar      1 <0>        -0.1294
      8 C7         -2.9529   -4.2119    1.4094 C.ar      1 <0>        -0.0553
      9 C8         -2.6116   -3.1894    0.5121 C.ar      1 <0>         0.0778
     10 N2         -3.4810   -2.8199   -0.4510 N.2       1 <0>        -0.4797
     11 C9         -3.1833   -1.8684   -1.2989 C.2       1 <0>         0.3555
     12 C10        -1.8838   -1.1771   -1.2071 C.2       1 <0>         0.5092
     13 O1         -1.6020   -0.2873   -1.9883 O.2       1 <0>        -0.5119
     14 N3         -4.0916   -1.5063   -2.2789 N.pl3     1 <0>        -0.6297
     15 C11        -5.3633   -2.0707   -2.2916 C.ar      1 <0>         0.1907
     16 C12        -6.0300   -2.3080   -1.0926 C.ar      1 <0>        -0.1205
     17 C13        -7.2881   -2.8657   -1.1019 C.ar      1 <0>        -0.0343
     18 C14        -7.8966   -3.1940   -2.3168 C.ar      1 <0>        -0.1554
     19 C15        -7.2246   -2.9545   -3.5190 C.ar      1 <0>        -0.0620
     20 C16        -5.9688   -2.3917   -3.5034 C.ar      1 <0>        -0.1529
     21 C17        -9.2451   -3.7925   -2.3303 C.2       1 <0>         0.5641
     22 O2         -9.8284   -4.0006   -1.2838 O.2       1 <0>        -0.5346
     23 N4         -9.8305   -4.1085   -3.5024 N.am      1 <0>        -0.7261
     24 C18       -11.1695   -4.7027   -3.5157 C.3       1 <0>         0.2078
     25 C19       -11.5915   -4.9584   -4.9397 C.2       1 <0>        -0.1761
     26 C20       -11.4090   -6.0669   -5.6981 C.2       1 <0>        -0.1308
     27 C21       -11.8871   -6.0780   -6.9950 C.2       1 <0>        -0.1635
     28 C22       -12.5242   -4.9800   -7.4701 C.2       1 <0>        -0.1626
     29 S1        -12.4683   -3.8828   -6.0628 S.3       1 <0>         0.0522
     30 H1          1.1412    0.8093    0.8912 H         1 <0>         0.0801
     31 H2         -0.5583    1.0186    0.4052 H         1 <0>         0.0638
     32 H3         -0.1504   -0.0223    1.7903 H         1 <0>         0.0631
     33 H4          0.6165   -0.5470   -1.1172 H         1 <0>         0.1011
     34 H5          1.0243   -1.5879    0.2679 H         1 <0>         0.0968
     35 H6          0.4828   -2.4757    1.7256 H         1 <0>         0.1347
     36 H7         -0.1539   -4.2702    3.2761 H         1 <0>         0.1339
     37 H8         -2.3418   -5.3740    3.0723 H         1 <0>         0.1345
     38 H9         -3.9113   -4.7031    1.3291 H         1 <0>         0.1409
     39 H10        -3.8414   -0.8591   -2.9567 H         1 <0>         0.4297
     40 H11        -5.5592   -2.0544   -0.1543 H         1 <0>         0.1377
     41 H12        -7.8046   -3.0499   -0.1715 H         1 <0>         0.1403
     42 H13        -7.6920   -3.2074   -4.4592 H         1 <0>         0.1288
     43 H14        -5.4508   -2.2026   -4.4320 H         1 <0>         0.1332
     44 H15        -9.3653   -3.9424   -4.3372 H         1 <0>         0.4024
     45 H16       -11.1547   -5.6442   -2.9666 H         1 <0>         0.0935
     46 H17       -11.8754   -4.0185   -3.0449 H         1 <0>         0.0859
     47 H18       -10.8974   -6.9285   -5.2952 H         1 <0>         0.1361
     48 H19       -11.7546   -6.9483   -7.6206 H         1 <0>         0.1367
     49 H20       -12.9570   -4.8135   -8.4455 H         1 <0>         0.1879
@<TRIPOS>BOND
     1    1    2 1
     2    1   30 1
     3    1   31 1
     4    1   32 1
     5    2    3 1
     6    2   33 1
     7    2   34 1
     8    3   12 am
     9    3    4 1
    10    4    9 ar
    11    4    5 ar
    12    5    6 ar
    13    5   35 1
    14    6    7 ar
    15    6   36 1
    16    7    8 ar
    17    7   37 1
    18    8    9 ar
    19    8   38 1
    20    9   10 1
    21   10   11 2
    22   11   12 1
    23   11   14 1
    24   12   13 2
    25   14   15 1
    26   14   39 1
    27   15   20 ar
    28   15   16 ar
    29   16   17 ar
    30   16   40 1
    31   17   18 ar
    32   17   41 1
    33   18   19 ar
    34   18   21 1
    35   19   20 ar
    36   19   42 1
    37   20   43 1
    38   21   22 2
    39   21   23 am
    40   23   24 1
    41   23   44 1
    42   24   25 1
    43   24   45 1
    44   24   46 1
    45   25   29 1
    46   25   26 2
    47   26   27 1
    48   26   47 1
    49   27   28 2
    50   27   48 1
    51   28   29 1
    52   28   49 1
@<TRIPOS>MOLECULE
CHEMBL115441
   55    57     0     0     0
SMALL
USER_CHARGES

@<TRIPOS>ATOM
      1 C1          0.1868    1.6358   -0.0411 C.3       1 <0>        -0.1145
      2 C2          0.0447    0.1366    0.0156 C.2       1 <0>         0.2458
      3 C3         -1.1819   -0.4131    0.0214 C.2       1 <0>        -0.3040
      4 C4         -1.3775   -1.9015    0.0673 C.3       1 <0>         0.0769
      5 C5         -0.1137   -2.5931    0.4936 C.2       1 <0>        -0.2153
      6 C6          1.0787   -1.9560    0.4702 C.2       1 <0>         0.0644
      7 N1          1.1650   -0.6454    0.0547 N.pl3     1 <0>        -0.4897
      8 C7          2.4599   -0.0864   -0.3415 C.3       1 <0>         0.1431
      9 C8          2.6082   -0.1747   -1.8386 C.ar      1 <0>        -0.0769
     10 C9          3.1683   -1.3007   -2.4121 C.ar      1 <0>        -0.0662
     11 C10         3.3052   -1.3822   -3.7865 C.ar      1 <0>        -0.0250
     12 C11         2.8808   -0.3366   -4.5867 C.ar      1 <0>        -0.1046
     13 C12         2.3199    0.7898   -4.0122 C.ar      1 <0>        -0.0328
     14 C13         2.1788    0.8679   -2.6380 C.ar      1 <0>        -0.0943
     15 Cl1         1.7876    2.1026   -5.0156 Cl        1 <0>        -0.0747
     16 Cl2         4.0098   -2.7959   -4.5066 Cl        1 <0>        -0.0608
     17 C14         2.3059   -2.6770    0.8908 C.2       1 <0>         0.5818
     18 O1          2.9579   -3.3038    0.0694 O.co2     1 <0>        -0.6859
     19 O2          2.6641   -2.6438    2.0584 O.co2     1 <0>        -0.6821
     20 C15        -0.1745   -3.9849    0.9440 C.2       1 <0>         0.5232
     21 O3          0.8258   -4.5259    1.3973 O.co2     1 <0>        -0.6558
     22 O4         -1.2257   -4.6077    0.8672 O.co2     1 <0>        -0.7036
     23 C16        -1.7736   -2.3920   -1.3014 C.ar      1 <0>        -0.0132
     24 C17        -0.9260   -2.2005   -2.3765 C.ar      1 <0>        -0.0920
     25 C18        -1.2892   -2.6503   -3.6320 C.ar      1 <0>        -0.1272
     26 C19        -2.5003   -3.2921   -3.8134 C.ar      1 <0>        -0.1315
     27 C20        -3.3485   -3.4841   -2.7394 C.ar      1 <0>        -0.1284
     28 C21        -2.9830   -3.0391   -1.4812 C.ar      1 <0>         0.0029
     29 Cl3        -4.0450   -3.2859   -0.1303 Cl        1 <0>        -0.0619
     30 C22        -2.3161    0.4309   -0.0161 C.2       1 <0>         0.5273
     31 O5         -2.1747    1.6389   -0.0531 O.2       1 <0>        -0.5573
     32 O6         -3.5553   -0.1036   -0.0109 O.3       1 <0>        -0.3301
     33 C23        -4.6551    0.8079   -0.0502 C.3       1 <0>         0.0816
     34 C24        -5.0340    1.0875   -1.5060 C.3       1 <0>        -0.1649
     35 C25        -5.8520    0.1949    0.6795 C.3       1 <0>        -0.1465
     36 H1          1.2415    1.9035    0.0223 H         1 <0>         0.0560
     37 H2         -0.2258    2.0046   -0.9802 H         1 <0>         0.0882
     38 H3         -0.3525    2.0837    0.7935 H         1 <0>         0.0962
     39 H4         -2.1717   -2.1372    0.7757 H         1 <0>         0.0900
     40 H5          2.5152    0.9572   -0.0319 H         1 <0>         0.0922
     41 H6          3.2608   -0.6503    0.1368 H         1 <0>         0.1125
     42 H7          3.4996   -2.1169   -1.7873 H         1 <0>         0.1742
     43 H8          2.9878   -0.3996   -5.6596 H         1 <0>         0.1373
     44 H9          1.7369    1.7454   -2.1897 H         1 <0>         0.1363
     45 H10         0.0200   -1.6990   -2.2355 H         1 <0>         0.1155
     46 H11        -0.6268   -2.5001   -4.4717 H         1 <0>         0.1118
     47 H12        -2.7837   -3.6430   -4.7947 H         1 <0>         0.1150
     48 H13        -4.2947   -3.9852   -2.8813 H         1 <0>         0.1184
     49 H14        -4.3715    1.7408    0.4370 H         1 <0>         0.0742
     50 H15        -4.1813    1.5242   -2.0259 H         1 <0>         0.0581
     51 H16        -5.3176    0.1546   -1.9932 H         1 <0>         0.0627
     52 H17        -5.8729    1.7828   -1.5360 H         1 <0>         0.0606
     53 H18        -5.5821   -0.0043    1.7166 H         1 <0>         0.0616
     54 H19        -6.6909    0.8901    0.6495 H         1 <0>         0.0650
     55 H20        -6.1356   -0.7380    0.1923 H         1 <0>         0.0665
@<TRIPOS>BOND
     1    1    2 1
     2    1   36 1
     3    1   37 1
     4    1   38 1
     5    2    7 1
     6    2    3 2
     7    3    4 1
     8    3   30 1
     9    4    5 1
    10    4   23 1
    11    4   39 1
    12    5    6 2
    13    5   20 1
    14    6    7 1
    15    6   17 1
    16    7    8 1
    17    8    9 1
    18    8   40 1
    19    8   41 1
    20    9   14 ar
    21    9   10 ar
    22   10   11 ar
    23   10   42 1
    24   11   12 ar
    25   11   16 1
    26   12   13 ar
    27   12   43 1
    28   13   14 ar
    29   13   15 1
    30   14   44 1
    31   17   18 2
    32   17   19 1
    33   20   21 2
    34   20   22 1
    35   23   28 ar
    36   23   24 ar
    37   24   25 ar
    38   24   45 1
    39   25   26 ar
    40   25   46 1
    41   26   27 ar
    42   26   47 1
    43   27   28 ar
    44   27   48 1
    45   28   29 1
    46   30   31 2
    47   30   32 1
    48   32   33 1
    49   33   34 1
    50   33   35 1
    51   33   49 1
    52   34   50 1
    53   34   51 1
    54   34   52 1
    55   35   53 1
    56   35   54 1
    57   35   55 1
@<TRIPOS>MOLECULE
CHEMBL115441__1
   55    57     0     0     0
SMALL
USER_CHARGES

@<TRIPOS>ATOM
      1 C1          0.0570    1.4984    0.0608 C.3       1 <0>        -0.1148
      2 C2          0.0401   -0.0080    0.0216 C.2       1 <0>         0.2450
      3 C3         -1.1296   -0.6607    0.1344 C.2       1 <0>        -0.3038
      4 C4         -1.1996   -2.1609    0.1101 C.3       1 <0>         0.0756
      5 C5          0.0727   -2.7459   -0.4341 C.2       1 <0>        -0.2155
      6 C6          1.2025   -2.0088   -0.5262 C.2       1 <0>         0.0642
      7 N1          1.2136   -0.6913   -0.1337 N.pl3     1 <0>        -0.4877
      8 C7          2.4895   -0.0190    0.1235 C.3       1 <0>         0.1423
      9 C8          2.7946   -0.0676    1.5985 C.ar      1 <0>        -0.0773
     10 C9          2.3520    0.9446    2.4293 C.ar      1 <0>        -0.0946
     11 C10         2.6321    0.9007    3.7835 C.ar      1 <0>        -0.0322
     12 C11         3.3549   -0.1567    4.3061 C.ar      1 <0>        -0.1046
     13 C12         3.7972   -1.1696    3.4743 C.ar      1 <0>        -0.0244
     14 C13         3.5120   -1.1272    2.1210 C.ar      1 <0>        -0.0656
     15 Cl1         4.7048   -2.4967    4.1291 Cl        1 <0>        -0.0604
     16 Cl2         2.0771    2.1726    4.8265 Cl        1 <0>        -0.0742
     17 C14         2.4416   -2.6263   -1.0612 C.2       1 <0>         0.5803
     18 O1          2.7232   -2.5049   -2.2439 O.co2     1 <0>        -0.6942
     19 O2          3.1800   -3.2560   -0.3189 O.co2     1 <0>        -0.6729
     20 C15         0.0897   -4.1426   -0.8731 C.2       1 <0>         0.5230
     21 O3          1.1409   -4.6599   -1.2281 O.co2     1 <0>        -0.6545
     22 O4         -0.9473   -4.7930   -0.8852 O.co2     1 <0>        -0.7051
     23 C16        -1.4196   -2.6697    1.5115 C.ar      1 <0>        -0.0167
     24 C17        -0.4988   -2.3858    2.5026 C.ar      1 <0>        -0.0912
     25 C18        -0.7005   -2.8524    3.7879 C.ar      1 <0>        -0.1266
     26 C19        -1.8233   -3.6033    4.0831 C.ar      1 <0>        -0.1315
     27 C20        -2.7445   -3.8878    3.0931 C.ar      1 <0>        -0.1278
     28 C21        -2.5460   -3.4161    1.8075 C.ar      1 <0>        -0.0018
     29 Cl3        -3.7062   -3.7674    0.5648 Cl        1 <0>        -0.0596
     30 C22        -2.3234    0.0833    0.2799 C.2       1 <0>         0.5273
     31 O5         -2.2837    1.2993    0.3018 O.2       1 <0>        -0.5574
     32 O6         -3.5067   -0.5553    0.3945 O.3       1 <0>        -0.3300
     33 C23        -4.6722    0.2590    0.5384 C.3       1 <0>         0.0816
     34 C24        -5.2436    0.5805   -0.8439 C.3       1 <0>        -0.1670
     35 C25        -5.7206   -0.4921    1.3616 C.3       1 <0>        -0.1451
     36 H1          1.0881    1.8510    0.0333 H         1 <0>         0.0555
     37 H2         -0.4841    1.8903   -0.8004 H         1 <0>         0.0905
     38 H3         -0.4207    1.8434    0.9778 H         1 <0>         0.0946
     39 H4         -2.0344   -2.4708   -0.5184 H         1 <0>         0.0932
     40 H5          3.2833   -0.5224   -0.4284 H         1 <0>         0.1131
     41 H6          2.4245    1.0199   -0.2000 H         1 <0>         0.0926
     42 H7          1.7877    1.7701    2.0211 H         1 <0>         0.1371
     43 H8          3.5741   -0.1912    5.3630 H         1 <0>         0.1376
     44 H9          3.8534   -1.9202    1.4722 H         1 <0>         0.1710
     45 H10         0.3786   -1.7996    2.2725 H         1 <0>         0.1158
     46 H11         0.0194   -2.6306    4.5619 H         1 <0>         0.1123
     47 H12        -1.9802   -3.9679    5.0876 H         1 <0>         0.1155
     48 H13        -3.6214   -4.4746    3.3238 H         1 <0>         0.1190
     49 H14        -4.4071    1.1861    1.0466 H         1 <0>         0.0739
     50 H15        -4.4967    1.1156   -1.4304 H         1 <0>         0.0592
     51 H16        -5.5087   -0.3466   -1.3522 H         1 <0>         0.0632
     52 H17        -6.1325    1.2017   -0.7341 H         1 <0>         0.0610
     53 H18        -5.3135   -0.7211    2.3464 H         1 <0>         0.0609
     54 H19        -6.6096    0.1291    1.4714 H         1 <0>         0.0645
     55 H20        -5.9857   -1.4192    0.8534 H         1 <0>         0.0665
@<TRIPOS>BOND
     1    1    2 1
     2    1   36 1
     3    1   37 1
     4    1   38 1
     5    2    7 1
     6    2    3 2
     7    3    4 1
     8    3   30 1
     9    4    5 1
    10    4   23 1
    11    4   39 1
    12    5    6 2
    13    5   20 1
    14    6    7 1
    15    6   17 1
    16    7    8 1
    17    8    9 1
    18    8   40 1
    19    8   41 1
    20    9   14 ar
    21    9   10 ar
    22   10   11 ar
    23   10   42 1
    24   11   12 ar
    25   11   16 1
    26   12   13 ar
    27   12   43 1
    28   13   14 ar
    29   13   15 1
    30   14   44 1
    31   17   18 2
    32   17   19 1
    33   20   21 2
    34   20   22 1
    35   23   28 ar
    36   23   24 ar
    37   24   25 ar
    38   24   45 1
    39   25   26 ar
    40   25   46 1
    41   26   27 ar
    42   26   47 1
    43   27   28 ar
    44   27   48 1
    45   28   29 1
    46   30   31 2
    47   30   32 1
    48   32   33 1
    49   33   34 1
    50   33   35 1
    51   33   49 1
    52   34   50 1
    53   34   51 1
    54   34   52 1
    55   35   53 1
    56   35   54 1
    57   35   55 1
@<TRIPOS>MOLECULE
CHEMBL196001
   43    46     0     0     0
SMALL
USER_CHARGES

@<TRIPOS>ATOM
      1 C1          0.1190    1.4265    0.9368 C.3       1 <0>         0.0636
      2 N1          0.2637   -0.0222    1.0997 N.am      1 <0>        -0.5063
      3 C2         -0.5976   -0.7249    1.9226 C.ar      1 <0>         0.1083
      4 C3         -1.6120   -0.0607    2.6048 C.ar      1 <0>        -0.1430
      5 C4         -2.4665   -0.7684    3.4226 C.ar      1 <0>        -0.0806
      6 C5         -2.3226   -2.1409    3.5716 C.ar      1 <0>        -0.1287
      7 C6         -1.3341   -2.8121    2.9120 C.ar      1 <0>        -0.0551
      8 C7         -0.4523   -2.1151    2.0732 C.ar      1 <0>         0.0781
      9 N2          0.5240   -2.7793    1.4207 N.2       1 <0>        -0.4788
     10 C8          1.3584   -2.1489    0.6338 C.2       1 <0>         0.3560
     11 C9          1.2369   -0.6914    0.4440 C.2       1 <0>         0.5091
     12 O1          2.0059   -0.0989   -0.2902 O.2       1 <0>        -0.5131
     13 N3          2.3527   -2.8516   -0.0251 N.pl3     1 <0>        -0.6296
     14 C10         2.3941   -4.2401    0.0565 C.ar      1 <0>         0.1944
     15 C11         1.2101   -4.9722    0.0457 C.ar      1 <0>        -0.1209
     16 C12         1.2477   -6.3455    0.1263 C.ar      1 <0>        -0.0298
     17 C13         2.4767   -7.0054    0.2186 C.ar      1 <0>        -0.1553
     18 C14         3.6640   -6.2674    0.2287 C.ar      1 <0>        -0.0602
     19 C15         3.6199   -4.8945    0.1430 C.ar      1 <0>        -0.1520
     20 C16         2.5206   -8.4774    0.3056 C.2       1 <0>         0.5736
     21 O2          1.4871   -9.1181    0.2971 O.2       1 <0>        -0.5094
     22 N4          3.7063   -9.1121    0.3945 N.am      1 <0>        -0.6338
     23 C17         3.7480  -10.5099    0.4772 C.2       1 <0>         0.3012
     24 C18         2.6380  -11.3700    0.4723 C.2       1 <0>        -0.2682
     25 C19         3.0959  -12.6389    0.5679 C.2       1 <0>         0.0683
     26 N5          4.4432  -12.5892    0.6311 N.pl3     1 <0>        -0.4696
     27 H1          5.0387  -13.3514    0.7043 H         1 <0>         0.4432
     28 N6          4.8315  -11.2449    0.5669 N.2       1 <0>        -0.3230
     29 H2          0.8823    1.7930    0.2504 H         1 <0>         0.1031
     30 H3         -0.8690    1.6500    0.5343 H         1 <0>         0.0820
     31 H4          0.2360    1.9145    1.9044 H         1 <0>         0.0822
     32 H5         -1.7295    1.0072    2.4941 H         1 <0>         0.1344
     33 H6         -3.2534   -0.2512    3.9514 H         1 <0>         0.1344
     34 H7         -2.9990   -2.6827    4.2160 H         1 <0>         0.1350
     35 H8         -1.2309   -3.8800    3.0359 H         1 <0>         0.1416
     36 H9          3.0204   -2.3761   -0.5436 H         1 <0>         0.4305
     37 H10         0.2609   -4.4619   -0.0256 H         1 <0>         0.1393
     38 H11         0.3288   -6.9129    0.1186 H         1 <0>         0.1426
     39 H12         4.6150   -6.7743    0.2999 H         1 <0>         0.1311
     40 H13         4.5369   -4.3241    0.1470 H         1 <0>         0.1353
     41 H14         4.5307   -8.6010    0.4013 H         1 <0>         0.4148
     42 H15         1.6024  -11.0712    0.4046 H         1 <0>         0.1735
     43 H16         2.4909  -13.5332    0.5902 H         1 <0>         0.1819
@<TRIPOS>BOND
     1    1    2 1
     2    1   29 1
     3    1   30 1
     4    1   31 1
     5    2   11 am
     6    2    3 1
     7    3    8 ar
     8    3    4 ar
     9    4    5 ar
    10    4   32 1
    11    5    6 ar
    12    5   33 1
    13    6    7 ar
    14    6   34 1
    15    7    8 ar
    16    7   35 1
    17    8    9 1
    18    9   10 2
    19   10   11 1
    20   10   13 1
    21   11   12 2
    22   13   14 1
    23   13   36 1
    24   14   19 ar
    25   14   15 ar
    26   15   16 ar
    27   15   37 1
    28   16   17 ar
    29   16   38 1
    30   17   18 ar
    31   17   20 1
    32   18   19 ar
    33   18   39 1
    34   19   40 1
    35   20   21 2
    36   20   22 am
    37   22   23 1
    38   22   41 1
    39   23   28 2
    40   23   24 1
    41   24   25 2
    42   24   42 1
    43   25   26 1
    44   25   43 1
    45   26   27 1
    46   26   28 1
@<TRIPOS>MOLECULE
CHEMBL196001__1
   43    46     0     0     0
SMALL
USER_CHARGES

@<TRIPOS>ATOM
      1 C1          0.1190    1.4265    0.9369 C.3       1 <0>         0.0634
      2 N1          0.2638   -0.0222    1.0998 N.am      1 <0>        -0.5061
      3 C2         -0.5975   -0.7249    1.9227 C.ar      1 <0>         0.1092
      4 C3         -1.6119   -0.0607    2.6050 C.ar      1 <0>        -0.1432
      5 C4         -2.4663   -0.7684    3.4228 C.ar      1 <0>        -0.0796
      6 C5         -2.3224   -2.1409    3.5718 C.ar      1 <0>        -0.1286
      7 C6         -1.3339   -2.8121    2.9122 C.ar      1 <0>        -0.0546
      8 C7         -0.4522   -2.1151    2.0734 C.ar      1 <0>         0.0769
      9 N2          0.5241   -2.7793    1.4208 N.2       1 <0>        -0.4781
     10 C8          1.3585   -2.1489    0.6338 C.2       1 <0>         0.3549
     11 C9          1.2370   -0.6914    0.4440 C.2       1 <0>         0.5092
     12 O1          2.0060   -0.0989   -0.2901 O.2       1 <0>        -0.5130
     13 N3          2.3527   -2.8516   -0.0251 N.pl3     1 <0>        -0.6300
     14 C10         2.3941   -4.2401    0.0565 C.ar      1 <0>         0.1968
     15 C11         1.2100   -4.9722    0.0457 C.ar      1 <0>        -0.1202
     16 C12         1.2477   -6.3455    0.1263 C.ar      1 <0>        -0.0285
     17 C13         2.4767   -7.0054    0.2186 C.ar      1 <0>        -0.1563
     18 C14         3.6640   -6.2673    0.2287 C.ar      1 <0>        -0.0614
     19 C15         3.6199   -4.8945    0.1430 C.ar      1 <0>        -0.1522
     20 C16         2.5206   -8.4773    0.3056 C.2       1 <0>         0.5721
     21 O2          1.4871   -9.1180    0.2971 O.2       1 <0>        -0.4988
     22 N4          3.7063   -9.1120    0.3945 N.am      1 <0>        -0.6488
     23 C17         3.7478  -10.5028    0.4767 C.2       1 <0>         0.3056
     24 C18         2.6755  -11.3418    0.4780 C.2       1 <0>        -0.2753
     25 C19         3.1556  -12.6505    0.5743 C.2       1 <0>         0.0640
     26 N5          4.4621  -12.6092    0.6291 N.2       1 <0>        -0.2856
     27 H1          5.7799  -10.9464    0.5809 H         1 <0>         0.4357
     28 N6          4.8654  -11.2693    0.5643 N.pl3     1 <0>        -0.4944
     29 H2          0.8823    1.7930    0.2504 H         1 <0>         0.1032
     30 H3         -0.8690    1.6500    0.5345 H         1 <0>         0.0823
     31 H4          0.2361    1.9145    1.9045 H         1 <0>         0.0824
     32 H5         -1.7293    1.0072    2.4943 H         1 <0>         0.1347
     33 H6         -3.2532   -0.2512    3.9517 H         1 <0>         0.1348
     34 H7         -2.9988   -2.6827    4.2162 H         1 <0>         0.1353
     35 H8         -1.2312   -3.8801    3.0355 H         1 <0>         0.1417
     36 H9          3.0204   -2.3761   -0.5437 H         1 <0>         0.4307
     37 H10         0.2609   -4.4618   -0.0256 H         1 <0>         0.1403
     38 H11         0.3287   -6.9129    0.1186 H         1 <0>         0.1435
     39 H12         4.6150   -6.7742    0.3003 H         1 <0>         0.1284
     40 H13         4.5369   -4.3240    0.1470 H         1 <0>         0.1355
     41 H14         4.5307   -8.6009    0.4013 H         1 <0>         0.4109
     42 H15         1.6381  -11.0479    0.4160 H         1 <0>         0.1746
     43 H16         2.5505  -13.5447    0.5997 H         1 <0>         0.1885
@<TRIPOS>BOND
     1    1    2 1
     2    1   29 1
     3    1   30 1
     4    1   31 1
     5    2   11 am
     6    2    3 1
     7    3    8 ar
     8    3    4 ar
     9    4    5 ar
    10    4   32 1
    11    5    6 ar
    12    5   33 1
    13    6    7 ar
    14    6   34 1
    15    7    8 ar
    16    7   35 1
    17    8    9 1
    18    9   10 2
    19   10   11 1
    20   10   13 1
    21   11   12 2
    22   13   14 1
    23   13   36 1
    24   14   19 ar
    25   14   15 ar
    26   15   16 ar
    27   15   37 1
    28   16   17 ar
    29   16   38 1
    30   17   18 ar
    31   17   20 1
    32   18   19 ar
    33   18   39 1
    34   19   40 1
    35   20   21 2
    36   20   22 am
    37   22   41 1
    38   22   23 1
    39   23   24 2
    40   23   28 1
    41   24   25 1
    42   24   42 1
    43   25   26 2
    44   25   43 1
    45   26   28 1
    46   27   28 1
@<TRIPOS>MOLECULE
CHEMBL342364
   44    47     0     0     0
SMALL
USER_CHARGES

@<TRIPOS>ATOM
      1 C1         -0.0178    1.4608    0.0101 C.3       1 <0>         0.0782
      2 N1          0.0021   -0.0041    0.0020 N.am      1 <0>        -0.5619
      3 C2         -1.1943   -0.7344    0.0036 C.ar      1 <0>         0.1375
      4 C3         -2.1977   -0.4384    0.9147 C.ar      1 <0>        -0.1235
      5 C4         -3.3653   -1.1773    0.9123 C.ar      1 <0>        -0.0985
      6 C5         -3.5308   -2.2079    0.0049 C.ar      1 <0>        -0.1228
      7 C6         -2.5333   -2.4998   -0.9074 C.ar      1 <0>        -0.0928
      8 C7         -1.3668   -1.7599   -0.9143 C.ar      1 <0>        -0.1067
      9 C8         -0.2908   -2.0469   -1.9265 C.3       1 <0>        -0.0820
     10 C9          0.8677   -2.8015   -1.2696 C.3       1 <0>        -0.1152
     11 C10         1.1806   -2.1738    0.0888 C.3       1 <0>         0.1320
     12 C11         1.1694   -0.6738   -0.0127 C.2       1 <0>         0.5134
     13 O1          2.2146   -0.0654   -0.1044 O.2       1 <0>        -0.5188
     14 N2          2.5034   -2.6194    0.5338 N.am      1 <0>        -0.7092
     15 C12         2.8011   -2.6386    1.8481 C.2       1 <0>         0.5908
     16 O2          1.9715   -2.2858    2.6649 O.2       1 <0>        -0.5125
     17 C13         4.1288   -3.0860    2.2948 C.2       1 <0>         0.0193
     18 C14         4.5433   -3.1549    3.5869 C.2       1 <0>        -0.0944
     19 C15         5.8765   -3.6316    3.5873 C.ar      1 <0>        -0.1110
     20 C16         6.8020   -3.8997    4.6045 C.ar      1 <0>        -0.0475
     21 C17         8.0459   -4.3636    4.2857 C.ar      1 <0>        -0.0608
     22 C18         8.4042   -4.5732    2.9587 C.ar      1 <0>        -0.0773
     23 C19         7.5120   -4.3165    1.9422 C.ar      1 <0>        -0.1172
     24 C20         6.2376   -3.8433    2.2425 C.ar      1 <0>         0.1186
     25 N3          5.1515   -3.5088    1.4680 N.pl3     1 <0>        -0.5748
     26 H1          5.1111   -3.5590    0.5001 H         1 <0>         0.4192
     27 Cl1         9.1904   -4.6942    5.5484 Cl        1 <0>        -0.0684
     28 H2          1.0048    1.8381    0.0023 H         1 <0>         0.0926
     29 H3         -0.5450    1.8219   -0.8730 H         1 <0>         0.0676
     30 H4         -0.5280    1.8123    0.9069 H         1 <0>         0.0676
     31 H5         -2.0668    0.3666    1.6228 H         1 <0>         0.1290
     32 H6         -4.1494   -0.9496    1.6193 H         1 <0>         0.1304
     33 H7         -4.4423   -2.7871    0.0091 H         1 <0>         0.1284
     34 H8         -2.6661   -3.3058   -1.6138 H         1 <0>         0.1307
     35 H9         -0.7055   -2.6528   -2.7321 H         1 <0>         0.0917
     36 H10         0.0777   -1.1072   -2.3379 H         1 <0>         0.0770
     37 H11         0.5888   -3.8461   -1.1315 H         1 <0>         0.0921
     38 H12         1.7486   -2.7423   -1.9088 H         1 <0>         0.0842
     39 H13         0.4317   -2.4931    0.8135 H         1 <0>         0.1189
     40 H14         3.1649   -2.9007   -0.1175 H         1 <0>         0.4019
     41 H15         3.9605   -2.8925    4.4575 H         1 <0>         0.1608
     42 H16         6.5323   -3.7394    5.6380 H         1 <0>         0.1386
     43 H17         9.3921   -4.9406    2.7232 H         1 <0>         0.1404
     44 H18         7.8000   -4.4818    0.9145 H         1 <0>         0.1344
@<TRIPOS>BOND
     1    1    2 1
     2    1   28 1
     3    1   29 1
     4    1   30 1
     5    2   12 am
     6    2    3 1
     7    3    8 ar
     8    3    4 ar
     9    4    5 ar
    10    4   31 1
    11    5    6 ar
    12    5   32 1
    13    6    7 ar
    14    6   33 1
    15    7    8 ar
    16    7   34 1
    17    8    9 1
    18    9   10 1
    19    9   35 1
    20    9   36 1
    21   10   11 1
    22   10   37 1
    23   10   38 1
    24   11   12 1
    25   11   14 1
    26   11   39 1
    27   12   13 2
    28   14   15 am
    29   14   40 1
    30   15   16 2
    31   15   17 1
    32   17   25 1
    33   17   18 2
    34   18   19 1
    35   18   41 1
    36   19   24 ar
    37   19   20 ar
    38   20   21 ar
    39   20   42 1
    40   21   22 ar
    41   21   27 1
    42   22   23 ar
    43   22   43 1
    44   23   24 ar
    45   23   44 1
    46   24   25 1
    47   25   26 1
@<TRIPOS>MOLECULE
CHEMBL342364__1
   44    47     0     0     0
SMALL
USER_CHARGES

@<TRIPOS>ATOM
      1 C1         -0.0178    1.4608    0.0101 C.3       1 <0>         0.0782
      2 N1          0.0021   -0.0041    0.0020 N.am      1 <0>        -0.5619
      3 C2         -1.1943   -0.7344    0.0036 C.ar      1 <0>         0.1372
      4 C3         -2.2065   -0.4279   -0.8942 C.ar      1 <0>        -0.1236
      5 C4         -3.3741   -1.1669   -0.8889 C.ar      1 <0>        -0.0986
      6 C5         -3.5308   -2.2079    0.0081 C.ar      1 <0>        -0.1226
      7 C6         -2.5245   -2.5102    0.9072 C.ar      1 <0>        -0.0930
      8 C7         -1.3579   -1.7705    0.9112 C.ar      1 <0>        -0.1063
      9 C8         -0.2721   -2.0691    1.9096 C.3       1 <0>        -0.0819
     10 C9          0.8799   -2.8160    1.2328 C.3       1 <0>        -0.1144
     11 C10         1.1796   -2.1725   -0.1213 C.3       1 <0>         0.1316
     12 C11         1.1694   -0.6738   -0.0127 C.2       1 <0>         0.5135
     13 O1          2.2162   -0.0663    0.0655 O.2       1 <0>        -0.5188
     14 N2          2.4979   -2.6130   -0.5843 N.am      1 <0>        -0.7092
     15 C12         2.7828   -2.6169   -1.9016 C.2       1 <0>         0.5909
     16 O2          1.9453   -2.2548   -2.7061 O.2       1 <0>        -0.5126
     17 C13         4.1061   -3.0591   -2.3663 C.2       1 <0>         0.0194
     18 C14         4.5120   -3.1019   -3.6623 C.2       1 <0>        -0.0944
     19 C15         5.8435   -3.5829   -3.6815 C.ar      1 <0>        -0.1109
     20 C16         6.7612   -3.8331   -4.7103 C.ar      1 <0>        -0.0475
     21 C17         8.0053   -4.3085   -4.4095 C.ar      1 <0>        -0.0608
     22 C18         8.3714   -4.5473   -3.0897 C.ar      1 <0>        -0.0773
     23 C19         7.4867   -4.3094   -2.0622 C.ar      1 <0>        -0.1172
     24 C20         6.2126   -3.8241   -2.3439 C.ar      1 <0>         0.1186
     25 N3          5.1368   -3.4914   -1.5544 N.pl3     1 <0>        -0.5748
     26 H1          5.1058   -3.5527   -0.5869 H         1 <0>         0.4192
     27 Cl1         9.1398   -4.6181   -5.6866 Cl        1 <0>        -0.0685
     28 H2          1.0048    1.8381    0.0023 H         1 <0>         0.0926
     29 H3         -0.5450    1.8219   -0.8730 H         1 <0>         0.0674
     30 H4         -0.5280    1.8123    0.9069 H         1 <0>         0.0678
     31 H5         -2.0825    0.3852   -1.5941 H         1 <0>         0.1290
     32 H6         -4.1650   -0.9311   -1.5856 H         1 <0>         0.1304
     33 H7         -4.4426   -2.7866    0.0065 H         1 <0>         0.1284
     34 H8         -2.6507   -3.3240    1.6060 H         1 <0>         0.1308
     35 H9          0.1004   -1.1341    2.3281 H         1 <0>         0.0771
     36 H10        -0.6790   -2.6842    2.7122 H         1 <0>         0.0917
     37 H11         1.7670   -2.7640    1.8640 H         1 <0>         0.0841
     38 H12         0.5996   -3.8589    1.0853 H         1 <0>         0.0922
     39 H13         0.4236   -2.4835   -0.8423 H         1 <0>         0.1183
     40 H14         3.1657   -2.9017    0.0573 H         1 <0>         0.4019
     41 H15         3.9241   -2.8203   -4.5234 H         1 <0>         0.1608
     42 H16         6.4851   -3.6508   -5.7383 H         1 <0>         0.1386
     43 H17         9.3594   -4.9234   -2.8685 H         1 <0>         0.1403
     44 H18         7.7803   -4.4987   -1.0402 H         1 <0>         0.1344
@<TRIPOS>BOND
     1    1    2 1
     2    1   28 1
     3    1   29 1
     4    1   30 1
     5    2   12 am
     6    2    3 1
     7    3    8 ar
     8    3    4 ar
     9    4    5 ar
    10    4   31 1
    11    5    6 ar
    12    5   32 1
    13    6    7 ar
    14    6   33 1
    15    7    8 ar
    16    7   34 1
    17    8    9 1
    18    9   10 1
    19    9   35 1
    20    9   36 1
    21   10   11 1
    22   10   37 1
    23   10   38 1
    24   11   12 1
    25   11   14 1
    26   11   39 1
    27   12   13 2
    28   14   15 am
    29   14   40 1
    30   15   16 2
    31   15   17 1
    32   17   25 1
    33   17   18 2
    34   18   19 1
    35   18   41 1
    36   19   24 ar
    37   19   20 ar
    38   20   21 ar
    39   20   42 1
    40   21   22 ar
    41   21   27 1
    42   22   23 ar
    43   22   43 1
    44   23   24 ar
    45   23   44 1
    46   24   25 1
    47   25   26 1
@<TRIPOS>MOLECULE
CHEMBL134802
   48    51     0     0     0
SMALL
USER_CHARGES

@<TRIPOS>ATOM
      1 C1          0.0921    0.7743   -1.8151 C.ar      1 <0>        -0.1288
      2 C2          1.2122    1.6021   -1.7719 C.ar      1 <0>        -0.1188
      3 C3          2.4088    1.1390   -1.3172 C.ar      1 <0>        -0.0997
      4 C4          2.5201   -0.1932   -0.8840 C.ar      1 <0>        -0.0208
      5 C5          3.7404   -0.7035   -0.4081 C.ar      1 <0>        -0.1691
      6 C6          3.8155   -2.0011    0.0055 C.ar      1 <0>         0.1189
      7 C7          2.6868   -2.8364   -0.0383 C.ar      1 <0>         0.1274
      8 C8          1.4881   -2.3682   -0.4957 C.ar      1 <0>        -0.0976
      9 C9          1.3806   -1.0355   -0.9279 C.ar      1 <0>        -0.0658
     10 C10         0.1621   -0.5214   -1.4038 C.ar      1 <0>        -0.0990
     11 N1          2.7920   -4.1633    0.3911 N.am      1 <0>        -0.6274
     12 C11         1.9305   -5.0913   -0.0706 C.2       1 <0>         0.5679
     13 O1          1.1193   -4.7953   -0.9257 O.2       1 <0>        -0.5071
     14 C12         1.9725   -6.4719    0.4643 C.ar      1 <0>         0.1013
     15 C13         1.0830   -7.4282   -0.0212 C.ar      1 <0>        -0.0538
     16 C14         1.1347   -8.7158    0.4887 C.ar      1 <0>        -0.0104
     17 C15         2.0744   -9.0025    1.4668 C.ar      1 <0>        -0.0887
     18 C16         2.9279   -8.0020    1.9029 C.ar      1 <0>         0.1194
     19 N2          2.8607   -6.7892    1.3982 N.ar      1 <0>        -0.4146
     20 N3          0.2073   -9.7610    0.0004 N.pl3     1 <0>         0.0298
     21 O2         -0.6072   -9.4958   -0.8527 O.2       1 <0>        -0.1377
     22 O3          0.2643  -10.8799    0.4548 O.3       1 <0>        -0.1430
     23 O4          4.9964   -2.4919    0.4651 O.3       1 <0>        -0.2577
     24 C17         6.0550   -1.6462    0.5313 C.ar      1 <0>         0.0448
     25 C18         7.0321   -1.6821   -0.4564 C.ar      1 <0>        -0.1525
     26 C19         8.1131   -0.8263   -0.3997 C.ar      1 <0>        -0.0853
     27 C20         8.2310    0.0815    0.6520 C.ar      1 <0>        -0.1099
     28 C21         7.2411    0.1206    1.6560 C.ar      1 <0>        -0.0630
     29 C22         6.1549   -0.7431    1.5841 C.ar      1 <0>        -0.1303
     30 C23         7.3560    1.0784    2.7756 C.2       1 <0>         0.5606
     31 O5          7.9852    0.7737    3.7786 O.co2     1 <0>        -0.6866
     32 O6          6.8217    2.1754    2.6989 O.co2     1 <0>        -0.6966
     33 C24         9.3856    0.9965    0.7145 C.2       1 <0>         0.5132
     34 O7         10.1998    1.0168   -0.1979 O.co2     1 <0>        -0.7138
     35 O8          9.5291    1.7350    1.6788 O.co2     1 <0>        -0.6356
     36 H1         -0.8467    1.1678   -2.1761 H         1 <0>         0.1172
     37 H2          1.1299    2.6263   -2.1045 H         1 <0>         0.1203
     38 H3          3.2685    1.7921   -1.2898 H         1 <0>         0.1317
     39 H4          4.6150   -0.0709   -0.3705 H         1 <0>         0.1496
     40 H5          0.6269   -3.0193   -0.5253 H         1 <0>         0.1573
     41 H6         -0.7143   -1.1512   -1.4427 H         1 <0>         0.1222
     42 H7          3.4850   -4.4156    1.0212 H         1 <0>         0.4293
     43 H8          0.3633   -7.1696   -0.7837 H         1 <0>         0.1801
     44 H9          2.1403   -9.9961    1.8850 H         1 <0>         0.1729
     45 H10         3.6611   -8.2219    2.6647 H         1 <0>         0.1935
     46 H11         6.9451   -2.3839   -1.2726 H         1 <0>         0.1128
     47 H12         8.8689   -0.8599   -1.1705 H         1 <0>         0.1283
     48 H13         5.3909   -0.7156    2.3471 H         1 <0>         0.1147
@<TRIPOS>BOND
     1    1   10 ar
     2    1    2 ar
     3    1   36 1
     4    2    3 ar
     5    2   37 1
     6    3    4 ar
     7    3   38 1
     8    4    9 ar
     9    4    5 ar
    10    5    6 ar
    11    5   39 1
    12    6    7 ar
    13    6   23 1
    14    7    8 ar
    15    7   11 1
    16    8    9 ar
    17    8   40 1
    18    9   10 ar
    19   10   41 1
    20   11   12 am
    21   11   42 1
    22   12   13 2
    23   12   14 1
    24   14   19 ar
    25   14   15 ar
    26   15   16 ar
    27   15   43 1
    28   16   17 ar
    29   16   20 1
    30   17   18 ar
    31   17   44 1
    32   18   19 ar
    33   18   45 1
    34   20   21 2
    35   20   22 1
    36   23   24 1
    37   24   29 ar
    38   24   25 ar
    39   25   26 ar
    40   25   46 1
    41   26   27 ar
    42   26   47 1
    43   27   28 ar
    44   27   33 1
    45   28   29 ar
    46   28   30 1
    47   29   48 1
    48   30   31 2
    49   30   32 1
    50   33   34 2
    51   33   35 1
@<TRIPOS>MOLECULE
CHEMBL115045
   55    57     0     0     0
SMALL
USER_CHARGES

@<TRIPOS>ATOM
      1 C1         -0.2042    1.4881   -0.2407 C.3       1 <0>        -0.1106
      2 C2         -0.0490   -0.0108   -0.2581 C.2       1 <0>         0.2556
      3 C3         -1.0578   -0.7763   -0.7087 C.2       1 <0>        -0.3073
      4 C4         -0.9497   -2.2736   -0.7556 C.3       1 <0>         0.0775
      5 C5          0.1916   -2.7533    0.0955 C.2       1 <0>        -0.2151
      6 C6          1.1577   -1.9071    0.5182 C.2       1 <0>         0.0640
      7 N1          1.1178   -0.5725    0.1792 N.pl3     1 <0>        -0.4870
      8 C7          2.3261    0.2482    0.2916 C.3       1 <0>         0.1376
      9 C8          3.2032    0.0183   -0.9121 C.ar      1 <0>        -0.0846
     10 C9          4.2892   -0.8326   -0.8237 C.ar      1 <0>        -0.0480
     11 C10         5.0943   -1.0439   -1.9272 C.ar      1 <0>        -0.1053
     12 C11         4.8147   -0.4044   -3.1205 C.ar      1 <0>        -0.1011
     13 C12         3.7286    0.4472   -3.2108 C.ar      1 <0>        -0.0430
     14 C13         2.9184    0.6542   -2.1068 C.ar      1 <0>        -0.0226
     15 Cl1         1.5503    1.7168   -2.2206 Cl        1 <0>        -0.0466
     16 Cl2         3.3771    1.2506   -4.7090 Cl        1 <0>        -0.0693
     17 C14         2.2736   -2.4220    1.3503 C.2       1 <0>         0.5802
     18 O1          3.1519   -3.1018    0.8413 O.co2     1 <0>        -0.6633
     19 O2          2.3138   -2.1660    2.5443 O.co2     1 <0>        -0.7035
     20 C15         0.2588   -4.1658    0.4754 C.2       1 <0>         0.5241
     21 O3          1.1206   -4.5495    1.2556 O.co2     1 <0>        -0.6557
     22 O4         -0.5469   -4.9630    0.0129 O.co2     1 <0>        -0.7051
     23 C16        -0.7234   -2.7100   -2.1802 C.ar      1 <0>        -0.0122
     24 C17         0.3937   -2.2737   -2.8677 C.ar      1 <0>        -0.0894
     25 C18         0.6015   -2.6738   -4.1743 C.ar      1 <0>        -0.1271
     26 C19        -0.3078   -3.5106   -4.7945 C.ar      1 <0>        -0.1321
     27 C20        -1.4249   -3.9474   -4.1082 C.ar      1 <0>        -0.1292
     28 C21        -1.6305   -3.5518   -2.7983 C.ar      1 <0>         0.0028
     29 Cl3        -3.0302   -4.1054   -1.9334 Cl        1 <0>        -0.0627
     30 C22        -2.2505   -0.1567   -1.1489 C.2       1 <0>         0.5271
     31 O5         -2.3541    1.0553   -1.1169 O.2       1 <0>        -0.5581
     32 O6         -3.2736   -0.9096   -1.6044 O.3       1 <0>        -0.3304
     33 C23        -4.4480   -0.2172   -2.0328 C.3       1 <0>         0.0815
     34 C24        -4.3316    0.1109   -3.5227 C.3       1 <0>        -0.1649
     35 C25        -5.6748   -1.1013   -1.7997 C.3       1 <0>        -0.1461
     36 H1          0.7229    1.9454    0.1049 H         1 <0>         0.0592
     37 H2         -0.4308    1.8416   -1.2466 H         1 <0>         0.0915
     38 H3         -1.0170    1.7614    0.4322 H         1 <0>         0.0867
     39 H4         -1.8785   -2.7119   -0.3903 H         1 <0>         0.0890
     40 H5          2.0471    1.3007    0.3422 H         1 <0>         0.0984
     41 H6          2.8698   -0.0274    1.1952 H         1 <0>         0.1085
     42 H7          4.5090   -1.3321    0.1083 H         1 <0>         0.1584
     43 H8          5.9424   -1.7088   -1.8571 H         1 <0>         0.1373
     44 H9          5.4445   -0.5694   -3.9822 H         1 <0>         0.1347
     45 H10         1.1042   -1.6197   -2.3839 H         1 <0>         0.1155
     46 H11         1.4742   -2.3324   -4.7111 H         1 <0>         0.1111
     47 H12        -0.1451   -3.8227   -5.8155 H         1 <0>         0.1144
     48 H13        -2.1353   -4.6008   -4.5929 H         1 <0>         0.1179
     49 H14        -4.5528    0.7069   -1.4643 H         1 <0>         0.0739
     50 H15        -5.2274    0.6390   -3.8495 H         1 <0>         0.0602
     51 H16        -3.4576    0.7407   -3.6888 H         1 <0>         0.0579
     52 H17        -4.2268   -0.8132   -4.0912 H         1 <0>         0.0627
     53 H18        -5.7577   -1.3351   -0.7383 H         1 <0>         0.0614
     54 H19        -6.5706   -0.5732   -2.1265 H         1 <0>         0.0646
     55 H20        -5.5701   -2.0254   -2.3682 H         1 <0>         0.0664
@<TRIPOS>BOND
     1    1    2 1
     2    1   36 1
     3    1   37 1
     4    1   38 1
     5    2    7 1
     6    2    3 2
     7    3    4 1
     8    3   30 1
     9    4    5 1
    10    4   23 1
    11    4   39 1
    12    5    6 2
    13    5   20 1
    14    6    7 1
    15    6   17 1
    16    7    8 1
    17    8    9 1
    18    8   40 1
    19    8   41 1
    20    9   14 ar
    21    9   10 ar
    22   10   11 ar
    23   10   42 1
    24   11   12 ar
    25   11   43 1
    26   12   13 ar
    27   12   44 1
    28   13   14 ar
    29   13   16 1
    30   14   15 1
    31   17   18 2
    32   17   19 1
    33   20   21 2
    34   20   22 1
    35   23   28 ar
    36   23   24 ar
    37   24   25 ar
    38   24   45 1
    39   25   26 ar
    40   25   46 1
    41   26   27 ar
    42   26   47 1
    43   27   28 ar
    44   27   48 1
    45   28   29 1
    46   30   31 2
    47   30   32 1
    48   32   33 1
    49   33   34 1
    50   33   35 1
    51   33   49 1
    52   34   50 1
    53   34   51 1
    54   34   52 1
    55   35   53 1
    56   35   54 1
    57   35   55 1
@<TRIPOS>MOLECULE
CHEMBL115045__1
   55    57     0     0     0
SMALL
USER_CHARGES

@<TRIPOS>ATOM
      1 C1         -0.0161    1.1692   -0.0909 C.3       1 <0>        -0.1103
      2 C2          0.1741   -0.3133    0.1013 C.2       1 <0>         0.2471
      3 C3         -0.8861   -1.0846    0.3978 C.2       1 <0>        -0.3072
      4 C4         -0.7483   -2.5654    0.6077 C.3       1 <0>         0.0762
      5 C5          0.5626   -3.0615    0.0670 C.2       1 <0>        -0.2201
      6 C6          1.5728   -2.2096   -0.2192 C.2       1 <0>         0.0751
      7 N1          1.4214   -0.8557   -0.0339 N.pl3     1 <0>        -0.4857
      8 C7          2.6034    0.0079    0.0234 C.3       1 <0>         0.1432
      9 C8          2.7278    0.5981    1.4044 C.ar      1 <0>        -0.0875
     10 C9          2.4186    1.9285    1.6180 C.ar      1 <0>        -0.0928
     11 C10         2.5325    2.4706    2.8844 C.ar      1 <0>        -0.1205
     12 C11         2.9562    1.6832    3.9387 C.ar      1 <0>        -0.1022
     13 C12         3.2659    0.3520    3.7269 C.ar      1 <0>        -0.0411
     14 C13         3.1459   -0.1927    2.4593 C.ar      1 <0>        -0.0418
     15 Cl1         3.5268   -1.8653    2.1931 Cl        1 <0>         0.0570
     16 Cl2         3.7979   -0.6372    5.0505 Cl        1 <0>        -0.0607
     17 C14         2.8559   -2.7403   -0.7434 C.2       1 <0>         0.5801
     18 O1          3.0672   -2.7490   -1.9468 O.co2     1 <0>        -0.6997
     19 O2          3.7008   -3.1684    0.0283 O.co2     1 <0>        -0.6592
     20 C15         0.7503   -4.4967   -0.1542 C.2       1 <0>         0.5236
     21 O3          1.8440   -4.9250   -0.4993 O.co2     1 <0>        -0.6555
     22 O4         -0.1865   -5.2684    0.0060 O.co2     1 <0>        -0.7073
     23 C16        -0.8221   -2.8662    2.0825 C.ar      1 <0>        -0.0167
     24 C17         0.1010   -2.3103    2.9484 C.ar      1 <0>        -0.0924
     25 C18         0.0334   -2.5861    4.3012 C.ar      1 <0>        -0.1274
     26 C19        -0.9573   -3.4180    4.7890 C.ar      1 <0>        -0.1324
     27 C20        -1.8806   -3.9743    3.9244 C.ar      1 <0>        -0.1289
     28 C21        -1.8170   -3.6941    2.5708 C.ar      1 <0>        -0.0026
     29 Cl3        -2.9805   -4.3873    1.4848 Cl        1 <0>        -0.0608
     30 C22        -2.1624   -0.4869    0.5156 C.2       1 <0>         0.5272
     31 O5         -2.2907    0.7116    0.3490 O.2       1 <0>        -0.5590
     32 O6         -3.2380   -1.2458    0.8128 O.3       1 <0>        -0.3299
     33 C23        -4.4960   -0.5760    0.9163 C.3       1 <0>         0.0817
     34 C24        -5.1780   -0.5574   -0.4532 C.3       1 <0>        -0.1668
     35 C25        -5.3856   -1.3135    1.9190 C.3       1 <0>        -0.1450
     36 H1          0.9401    1.6288   -0.3409 H         1 <0>         0.0542
     37 H2         -0.7252    1.3426   -0.9003 H         1 <0>         0.0914
     38 H3         -0.4008    1.6085    0.8295 H         1 <0>         0.0886
     39 H4         -1.5638   -3.0774    0.0968 H         1 <0>         0.0917
     40 H5          3.4936   -0.5792   -0.2024 H         1 <0>         0.1204
     41 H6          2.5026    0.8106   -0.7070 H         1 <0>         0.0836
     42 H7          2.0883    2.5447    0.7949 H         1 <0>         0.1353
     43 H8          2.2908    3.5101    3.0502 H         1 <0>         0.1312
     44 H9          3.0456    2.1076    4.9278 H         1 <0>         0.1323
     45 H10         0.8753   -1.6607    2.5679 H         1 <0>         0.1214
     46 H11         0.7551   -2.1519    4.9772 H         1 <0>         0.1118
     47 H12        -1.0093   -3.6334    5.8461 H         1 <0>         0.1146
     48 H13        -2.6543   -4.6244    4.3055 H         1 <0>         0.1182
     49 H14        -4.3360    0.4472    1.2564 H         1 <0>         0.0733
     50 H15        -6.1376   -0.0464   -0.3743 H         1 <0>         0.0607
     51 H16        -4.5443   -0.0319   -1.1676 H         1 <0>         0.0591
     52 H17        -5.3381   -1.5805   -0.7933 H         1 <0>         0.0632
     53 H18        -4.8997   -1.3268    2.8947 H         1 <0>         0.0608
     54 H19        -6.3452   -0.8026    1.9979 H         1 <0>         0.0641
     55 H20        -5.5456   -2.3367    1.5789 H         1 <0>         0.0665
@<TRIPOS>BOND
     1    1    2 1
     2    1   36 1
     3    1   37 1
     4    1   38 1
     5    2    7 1
     6    2    3 2
     7    3    4 1
     8    3   30 1
     9    4    5 1
    10    4   23 1
    11    4   39 1
    12    5    6 2
    13    5   20 1
    14    6    7 1
    15    6   17 1
    16    7    8 1
    17    8    9 1
    18    8   40 1
    19    8   41 1
    20    9   14 ar
    21    9   10 ar
    22   10   11 ar
    23   10   42 1
    24   11   12 ar
    25   11   43 1
    26   12   13 ar
    27   12   44 1
    28   13   14 ar
    29   13   16 1
    30   14   15 1
    31   17   18 2
    32   17   19 1
    33   20   21 2
    34   20   22 1
    35   23   28 ar
    36   23   24 ar
    37   24   25 ar
    38   24   45 1
    39   25   26 ar
    40   25   46 1
    41   26   27 ar
    42   26   47 1
    43   27   28 ar
    44   27   48 1
    45   28   29 1
    46   30   31 2
    47   30   32 1
    48   32   33 1
    49   33   34 1
    50   33   35 1
    51   33   49 1
    52   34   50 1
    53   34   51 1
    54   34   52 1
    55   35   53 1
    56   35   54 1
    57   35   55 1
@<TRIPOS>MOLECULE
CHEMBL114271
   48    49     0     0     0
SMALL
USER_CHARGES

@<TRIPOS>ATOM
      1 C1          0.0125    1.3958   -0.2838 C.3       1 <0>        -0.1124
      2 C2          0.0555   -0.1045   -0.1481 C.2       1 <0>         0.2407
      3 C3         -1.0923   -0.8040   -0.1587 C.2       1 <0>        -0.2909
      4 C4         -1.1032   -2.3009   -0.0366 C.3       1 <0>         0.0729
      5 C5          0.2160   -2.8042    0.4766 C.2       1 <0>        -0.2100
      6 C6          1.3198   -2.0234    0.4634 C.2       1 <0>         0.0632
      7 N1          1.2613   -0.7354   -0.0217 N.pl3     1 <0>        -0.4948
      8 C7          2.4934   -0.0380   -0.3984 C.3       1 <0>         0.0661
      9 C8          2.7168   -0.1758   -1.9057 C.3       1 <0>         0.4314
     10 F1          1.7033    0.5022   -2.5914 F         1 <0>        -0.1889
     11 F2          3.9578    0.3736   -2.2454 F         1 <0>        -0.1868
     12 F3          2.6938   -1.5294   -2.2587 F         1 <0>        -0.1529
     13 C9          2.6067   -2.5609    0.9711 C.2       1 <0>         0.5760
     14 O1          3.3811   -3.1161    0.2064 O.co2     1 <0>        -0.6813
     15 O2          2.8917   -2.4481    2.1538 O.co2     1 <0>        -0.6802
     16 C10         0.3083   -4.1678    1.0020 C.2       1 <0>         0.5239
     17 O3          1.3457   -4.5532    1.5253 O.co2     1 <0>        -0.6536
     18 O4         -0.6521   -4.9224    0.9181 O.co2     1 <0>        -0.7022
     19 C11        -1.3727   -2.9069   -1.3898 C.ar      1 <0>        -0.0168
     20 C12        -0.5075   -2.6648   -2.4404 C.ar      1 <0>        -0.0939
     21 C13        -0.7545   -3.2205   -3.6816 C.ar      1 <0>        -0.1278
     22 C14        -1.8670   -4.0189   -3.8732 C.ar      1 <0>        -0.1307
     23 C15        -2.7327   -4.2616   -2.8237 C.ar      1 <0>        -0.1284
     24 C16        -2.4828   -3.7102   -1.5794 C.ar      1 <0>         0.0039
     25 Cl1        -3.5663   -4.0200   -0.2589 Cl        1 <0>        -0.0613
     26 C17        -2.3198   -0.1134   -0.2877 C.2       1 <0>         0.5285
     27 O5         -2.3280    1.0993   -0.3872 O.2       1 <0>        -0.5526
     28 O6         -3.4818   -0.7994   -0.3002 O.3       1 <0>        -0.3290
     29 C18        -4.6835   -0.0377   -0.4334 C.3       1 <0>         0.0811
     30 C19        -5.7420   -0.8765   -1.1523 C.3       1 <0>        -0.1453
     31 C20        -5.1971    0.3515    0.9543 C.3       1 <0>        -0.1673
     32 H1          1.0166    1.8008   -0.1580 H         1 <0>         0.0533
     33 H2         -0.3650    1.6606   -1.2714 H         1 <0>         0.0916
     34 H3         -0.6451    1.8110    0.4799 H         1 <0>         0.0996
     35 H4         -1.8934   -2.5987    0.6527 H         1 <0>         0.0940
     36 H5          2.4075    1.0171   -0.1388 H         1 <0>         0.1199
     37 H6          3.3366   -0.4761    0.1355 H         1 <0>         0.1401
     38 H7          0.3614   -2.0410   -2.2914 H         1 <0>         0.1181
     39 H8         -0.0785   -3.0308   -4.5022 H         1 <0>         0.1141
     40 H9         -2.0597   -4.4525   -4.8434 H         1 <0>         0.1161
     41 H10        -3.6018   -4.8849   -2.9736 H         1 <0>         0.1195
     42 H11        -4.4800    0.8638   -1.0115 H         1 <0>         0.0748
     43 H12        -5.9455   -1.7779   -0.5742 H         1 <0>         0.0668
     44 H13        -6.6586   -0.2954   -1.2539 H         1 <0>         0.0651
     45 H14        -5.3761   -1.1537   -2.1409 H         1 <0>         0.0615
     46 H15        -6.1137    0.9326    0.8526 H         1 <0>         0.0617
     47 H16        -5.4006   -0.5499    1.5323 H         1 <0>         0.0636
     48 H17        -4.4430    0.9491    1.4664 H         1 <0>         0.0593
@<TRIPOS>BOND
     1    1    2 1
     2    1   32 1
     3    1   33 1
     4    1   34 1
     5    2    7 1
     6    2    3 2
     7    3    4 1
     8    3   26 1
     9    4    5 1
    10    4   19 1
    11    4   35 1
    12    5    6 2
    13    5   16 1
    14    6    7 1
    15    6   13 1
    16    7    8 1
    17    8    9 1
    18    8   36 1
    19    8   37 1
    20    9   10 1
    21    9   11 1
    22    9   12 1
    23   13   14 2
    24   13   15 1
    25   16   17 2
    26   16   18 1
    27   19   24 ar
    28   19   20 ar
    29   20   21 ar
    30   20   38 1
    31   21   22 ar
    32   21   39 1
    33   22   23 ar
    34   22   40 1
    35   23   24 ar
    36   23   41 1
    37   24   25 1
    38   26   27 2
    39   26   28 1
    40   28   29 1
    41   29   30 1
    42   29   31 1
    43   29   42 1
    44   30   43 1
    45   30   44 1
    46   30   45 1
    47   31   46 1
    48   31   47 1
    49   31   48 1
@<TRIPOS>MOLECULE
CHEMBL114271__1
   48    49     0     0     0
SMALL
USER_CHARGES

@<TRIPOS>ATOM
      1 C1          0.0306    1.5001    0.0597 C.3       1 <0>        -0.1109
      2 C2          0.0260   -0.0062    0.0161 C.2       1 <0>         0.2410
      3 C3         -1.1397   -0.6684    0.1123 C.2       1 <0>        -0.2907
      4 C4         -1.1976   -2.1690    0.0829 C.3       1 <0>         0.0715
      5 C5          0.0859   -2.7424   -0.4470 C.2       1 <0>        -0.2102
      6 C6          1.2110   -1.9963   -0.5229 C.2       1 <0>         0.0619
      7 N1          1.2067   -0.6798   -0.1265 N.pl3     1 <0>        -0.4931
      8 C7          2.4740    0.0017    0.1486 C.3       1 <0>         0.0652
      9 C8          2.7664   -0.0516    1.6495 C.3       1 <0>         0.4297
     10 F1          2.8558   -1.3860    2.0601 F         1 <0>        -0.1527
     11 F2          3.9767    0.5992    1.9122 F         1 <0>        -0.1878
     12 F3          1.7342    0.5833    2.3485 F         1 <0>        -0.1872
     13 C9          2.4614   -2.6024   -1.0441 C.2       1 <0>         0.5759
     14 O1          2.7547   -2.4790   -2.2237 O.co2     1 <0>        -0.6948
     15 O2          3.1976   -3.2248   -0.2935 O.co2     1 <0>        -0.6660
     16 C10         0.1194   -4.1376   -0.8898 C.2       1 <0>         0.5239
     17 O3          1.1792   -4.6460   -1.2319 O.co2     1 <0>        -0.6524
     18 O4         -0.9125   -4.7958   -0.9179 O.co2     1 <0>        -0.7036
     19 C11        -1.4312   -2.6837    1.4799 C.ar      1 <0>        -0.0192
     20 C12        -0.5250   -2.3955    2.4833 C.ar      1 <0>        -0.0917
     21 C13        -0.7391   -2.8675    3.7646 C.ar      1 <0>        -0.1270
     22 C14        -1.8596   -3.6281    4.0436 C.ar      1 <0>        -0.1305
     23 C15        -2.7661   -3.9168    3.0414 C.ar      1 <0>        -0.1278
     24 C16        -2.5553   -3.4398    1.7597 C.ar      1 <0>        -0.0008
     25 Cl1        -3.6970   -3.7965    0.5016 Cl        1 <0>        -0.0591
     26 C17        -2.3412    0.0658    0.2450 C.2       1 <0>         0.5285
     27 O5         -2.3113    1.2820    0.2709 O.2       1 <0>        -0.5528
     28 O6         -3.5207   -0.5824    0.3429 O.3       1 <0>        -0.3288
     29 C18        -4.6942    0.2223    0.4746 C.3       1 <0>         0.0812
     30 C19        -5.8848   -0.5054   -0.1531 C.3       1 <0>        -0.1466
     31 C20        -4.9753    0.4755    1.9571 C.3       1 <0>        -0.1655
     32 H1          1.0591    1.8609    0.0452 H         1 <0>         0.0526
     33 H2         -0.5036    1.8904   -0.8065 H         1 <0>         0.0921
     34 H3         -0.4602    1.8387    0.9722 H         1 <0>         0.0981
     35 H4         -2.0221   -2.4836   -0.5569 H         1 <0>         0.0970
     36 H5          3.2783   -0.4929   -0.3960 H         1 <0>         0.1403
     37 H6          2.4044    1.0414   -0.1713 H         1 <0>         0.1207
     38 H7          0.3505   -1.8018    2.2659 H         1 <0>         0.1168
     39 H8         -0.0307   -2.6424    4.5482 H         1 <0>         0.1145
     40 H9         -2.0261   -3.9969    5.0449 H         1 <0>         0.1165
     41 H10        -3.6411   -4.5111    3.2593 H         1 <0>         0.1198
     42 H11        -4.5410    1.1741   -0.0339 H         1 <0>         0.0749
     43 H12        -6.0380   -1.4573    0.3554 H         1 <0>         0.0669
     44 H13        -6.7799    0.1084   -0.0527 H         1 <0>         0.0655
     45 H14        -5.6846   -0.6859   -1.2092 H         1 <0>         0.0621
     46 H15        -5.8704    1.0894    2.0575 H         1 <0>         0.0612
     47 H16        -5.1285   -0.4763    2.4656 H         1 <0>         0.0632
     48 H17        -4.1271    0.9940    2.4043 H         1 <0>         0.0583
@<TRIPOS>BOND
     1    1    2 1
     2    1   32 1
     3    1   33 1
     4    1   34 1
     5    2    7 1
     6    2    3 2
     7    3    4 1
     8    3   26 1
     9    4    5 1
    10    4   19 1
    11    4   35 1
    12    5    6 2
    13    5   16 1
    14    6    7 1
    15    6   13 1
    16    7    8 1
    17    8    9 1
    18    8   36 1
    19    8   37 1
    20    9   10 1
    21    9   11 1
    22    9   12 1
    23   13   14 2
    24   13   15 1
    25   16   17 2
    26   16   18 1
    27   19   24 ar
    28   19   20 ar
    29   20   21 ar
    30   20   38 1
    31   21   22 ar
    32   21   39 1
    33   22   23 ar
    34   22   40 1
    35   23   24 ar
    36   23   41 1
    37   24   25 1
    38   26   27 2
    39   26   28 1
    40   28   29 1
    41   29   30 1
    42   29   31 1
    43   29   42 1
    44   30   43 1
    45   30   44 1
    46   30   45 1
    47   31   46 1
    48   31   47 1
    49   31   48 1
@<TRIPOS>MOLECULE
CHEMBL213661
   43    44     0     0     0
SMALL
USER_CHARGES

@<TRIPOS>ATOM
      1 C1         -0.0167    1.3781    0.0096 C.ar      1 <0>        -0.1124
      2 C2          1.1709    2.0855    0.0021 C.ar      1 <0>        -0.1150
      3 C3          2.3773    1.4107   -0.0130 C.ar      1 <0>        -0.1152
      4 C4          2.3960    0.0285   -0.0201 C.ar      1 <0>        -0.1022
      5 C5          1.2084   -0.6789   -0.0117 C.ar      1 <0>        -0.1161
      6 C6          0.0021   -0.0041    0.0020 C.ar      1 <0>        -0.1154
      7 C7          3.7112   -0.7071   -0.0376 C.3       1 <0>        -0.0723
      8 C8          4.1714   -0.9633    1.3989 C.3       1 <0>        -0.1448
      9 C9          5.5066   -1.7102    1.3812 C.3       1 <0>        -0.0108
     10 N1          5.9484   -1.9561    2.7604 N.4       1 <0>        -0.3777
     11 C10         7.2876   -2.5567    2.7438 C.3       1 <0>        -0.0011
     12 C11         7.7862   -2.7403    4.1788 C.3       1 <0>        -0.1089
     13 H1          7.8301   -1.7712    4.6757 H         1 <0>         0.1121
     14 C12         6.8222   -3.6594    4.9347 C.3       1 <0>         0.1146
     15 H2          6.8168   -4.6446    4.4683 H         1 <0>         0.0755
     16 C13         5.4140   -3.0600    4.8818 C.3       1 <0>         0.0550
     17 H3          5.4086   -2.0975    5.3933 H         1 <0>         0.0874
     18 C14         5.0033   -2.8645    3.4208 C.3       1 <0>        -0.0489
     19 O1          4.4939   -3.9460    5.5225 O.3       1 <0>        -0.5376
     20 O2          7.2423   -3.7771    6.2955 O.3       1 <0>        -0.5249
     21 C15         9.1815   -3.3678    4.1586 C.3       1 <0>         0.0910
     22 O3          9.6943   -3.4319    5.4908 O.3       1 <0>        -0.5477
     23 H4         -0.9591    1.9053    0.0259 H         1 <0>         0.1270
     24 H5          1.1563    3.1654    0.0076 H         1 <0>         0.1266
     25 H6          3.3051    1.9634   -0.0196 H         1 <0>         0.1217
     26 H7          1.2231   -1.7588   -0.0176 H         1 <0>         0.1210
     27 H8         -0.9258   -0.5567    0.0082 H         1 <0>         0.1264
     28 H9          3.5884   -1.6586   -0.5549 H         1 <0>         0.0833
     29 H10         4.4573   -0.1052   -0.5563 H         1 <0>         0.0841
     30 H11         4.2941   -0.0118    1.9163 H         1 <0>         0.0899
     31 H12         3.4252   -1.5652    1.9176 H         1 <0>         0.0877
     32 H13         5.3838   -2.6617    0.8639 H         1 <0>         0.1335
     33 H14         6.2527   -1.1082    0.8625 H         1 <0>         0.1371
     34 H15         7.2444   -3.5263    2.2478 H         1 <0>         0.1368
     35 H16         7.9718   -1.9030    2.2028 H         1 <0>         0.1446
     36 H17         4.0010   -2.4381    3.3795 H         1 <0>         0.1377
     37 H18         5.0087   -3.8276    2.9103 H         1 <0>         0.1393
     38 H19         3.5803   -3.6290    5.5262 H         1 <0>         0.3973
     39 H20         6.6757   -4.3462    6.8342 H         1 <0>         0.3924
     40 H21         9.1215   -4.3738    3.7435 H         1 <0>         0.0549
     41 H22         9.8444   -2.7597    3.5430 H         1 <0>         0.0581
     42 H23        10.5779   -3.8198    5.5539 H         1 <0>         0.3902
     43 H24         5.9803   -1.0819    3.2632 H         1 <0>         0.4256
@<TRIPOS>BOND
     1    1    6 ar
     2    1    2 ar
     3    1   23 1
     4    2    3 ar
     5    2   24 1
     6    3    4 ar
     7    3   25 1
     8    4    5 ar
     9    4    7 1
    10    5    6 ar
    11    5   26 1
    12    6   27 1
    13    7    8 1
    14    7   28 1
    15    7   29 1
    16    8    9 1
    17    8   30 1
    18    8   31 1
    19    9   10 1
    20    9   32 1
    21    9   33 1
    22   10   18 1
    23   10   11 1
    24   10   43 1
    25   11   12 1
    26   11   34 1
    27   11   35 1
    28   12   13 1
    29   12   14 1
    30   12   21 1
    31   14   15 1
    32   14   16 1
    33   14   20 1
    34   16   17 1
    35   16   18 1
    36   16   19 1
    37   18   36 1
    38   18   37 1
    39   19   38 1
    40   20   39 1
    41   21   22 1
    42   21   40 1
    43   21   41 1
    44   22   42 1
@<TRIPOS>MOLECULE
CHEMBL337224
   49    52     0     0     0
SMALL
USER_CHARGES

@<TRIPOS>ATOM
      1 C1          0.0915    0.7739   -1.8147 C.ar      1 <0>        -0.1295
      2 C2          1.2115    1.6020   -1.7715 C.ar      1 <0>        -0.1201
      3 C3          2.4083    1.1389   -1.3172 C.ar      1 <0>        -0.0993
      4 C4          2.5199   -0.1933   -0.8840 C.ar      1 <0>        -0.0220
      5 C5          3.7403   -0.7035   -0.4086 C.ar      1 <0>        -0.1700
      6 C6          3.8157   -2.0011    0.0050 C.ar      1 <0>         0.1187
      7 C7          2.6869   -2.8364   -0.0380 C.ar      1 <0>         0.1301
      8 C8          1.4880   -2.3682   -0.4950 C.ar      1 <0>        -0.0996
      9 C9          1.3804   -1.0356   -0.9276 C.ar      1 <0>        -0.0652
     10 C10         0.1618   -0.5218   -1.4035 C.ar      1 <0>        -0.0992
     11 N1          2.7922   -4.1631    0.3917 N.am      1 <0>        -0.6304
     12 C11         1.9305   -5.0912   -0.0692 C.2       1 <0>         0.5681
     13 O1          1.1188   -4.7954   -0.9240 O.2       1 <0>        -0.5130
     14 C12         1.9726   -6.4717    0.4661 C.ar      1 <0>         0.0924
     15 C13         1.0829   -7.4281   -0.0187 C.ar      1 <0>        -0.0652
     16 C14         1.1348   -8.7155    0.4915 C.ar      1 <0>        -0.1474
     17 C15         2.0750   -9.0020    1.4692 C.ar      1 <0>        -0.1020
     18 C16         2.9288   -8.0014    1.9045 C.ar      1 <0>         0.1112
     19 N2          2.8613   -6.7888    1.3995 N.ar      1 <0>        -0.4290
     20 C17         0.1902   -9.7798   -0.0047 C.3       1 <0>         0.5145
     21 F1          0.7666  -10.4443   -1.0926 F         1 <0>        -0.1700
     22 F2         -0.0606  -10.6963    1.0220 F         1 <0>        -0.1720
     23 F3         -1.0121   -9.1866   -0.4044 F         1 <0>        -0.1695
     24 O2          4.9969   -2.4920    0.4637 O.3       1 <0>        -0.2573
     25 C18         6.0556   -1.6463    0.5291 C.ar      1 <0>         0.0458
     26 C19         7.0320   -1.6823   -0.4593 C.ar      1 <0>        -0.1527
     27 C20         8.1131   -0.8266   -0.4034 C.ar      1 <0>        -0.0852
     28 C21         8.2317    0.0813    0.6481 C.ar      1 <0>        -0.1106
     29 C22         7.2426    0.1205    1.6528 C.ar      1 <0>        -0.0630
     30 C23         6.1562   -0.7432    1.5818 C.ar      1 <0>        -0.1304
     31 C24         7.3582    1.0783    2.7723 C.2       1 <0>         0.5608
     32 O3          7.9882    0.7737    3.7748 O.co2     1 <0>        -0.6868
     33 O4          6.8240    2.1754    2.6958 O.co2     1 <0>        -0.6969
     34 C25         9.3864    0.9962    0.7098 C.2       1 <0>         0.5133
     35 O5         10.2000    1.0165   -0.2032 O.co2     1 <0>        -0.7141
     36 O6          9.5306    1.7348    1.6740 O.co2     1 <0>        -0.6360
     37 H1         -0.8473    1.1673   -2.1756 H         1 <0>         0.1166
     38 H2          1.1289    2.6263   -2.1037 H         1 <0>         0.1197
     39 H3          3.2679    1.7921   -1.2901 H         1 <0>         0.1312
     40 H4          4.6148   -0.0708   -0.3713 H         1 <0>         0.1490
     41 H5          0.6268   -3.0193   -0.5240 H         1 <0>         0.1573
     42 H6         -0.7145   -1.1518   -1.4425 H         1 <0>         0.1217
     43 H7          3.4855   -4.4153    1.0215 H         1 <0>         0.4290
     44 H8          0.3628   -7.1697   -0.7809 H         1 <0>         0.1639
     45 H9          2.1411   -9.9955    1.8876 H         1 <0>         0.1561
     46 H10         3.6624   -8.2212    2.6660 H         1 <0>         0.1811
     47 H11         6.9443   -2.3842   -1.2754 H         1 <0>         0.1129
     48 H12         8.8683   -0.8603   -1.1747 H         1 <0>         0.1280
     49 H13         5.3928   -0.7156    2.3452 H         1 <0>         0.1147
@<TRIPOS>BOND
     1    1   10 ar
     2    1    2 ar
     3    1   37 1
     4    2    3 ar
     5    2   38 1
     6    3    4 ar
     7    3   39 1
     8    4    9 ar
     9    4    5 ar
    10    5    6 ar
    11    5   40 1
    12    6    7 ar
    13    6   24 1
    14    7    8 ar
    15    7   11 1
    16    8    9 ar
    17    8   41 1
    18    9   10 ar
    19   10   42 1
    20   11   12 am
    21   11   43 1
    22   12   13 2
    23   12   14 1
    24   14   19 ar
    25   14   15 ar
    26   15   16 ar
    27   15   44 1
    28   16   17 ar
    29   16   20 1
    30   17   18 ar
    31   17   45 1
    32   18   19 ar
    33   18   46 1
    34   20   21 1
    35   20   22 1
    36   20   23 1
    37   24   25 1
    38   25   30 ar
    39   25   26 ar
    40   26   27 ar
    41   26   47 1
    42   27   28 ar
    43   27   48 1
    44   28   29 ar
    45   28   34 1
    46   29   30 ar
    47   29   31 1
    48   30   49 1
    49   31   32 2
    50   31   33 1
    51   34   35 2
    52   34   36 1
@<TRIPOS>MOLECULE
CHEMBL132430
   40    42     0     0     0
SMALL
USER_CHARGES

@<TRIPOS>ATOM
      1 C1          0.3435    1.0407   -0.9722 C.ar      1 <0>        -0.1468
      2 C2          1.4917    1.7998   -0.8382 C.ar      1 <0>        -0.0919
      3 C3          2.6289    1.2474   -0.2793 C.ar      1 <0>        -0.1683
      4 C4          2.6209   -0.0707    0.1486 C.ar      1 <0>         0.1138
      5 C5          1.4641   -0.8360    0.0143 C.ar      1 <0>         0.1014
      6 C6          0.3267   -0.2742   -0.5478 C.ar      1 <0>        -0.1077
      7 N1          1.4499   -2.1682    0.4443 N.am      1 <0>        -0.6276
      8 C7          0.5163   -3.0185   -0.0269 C.2       1 <0>         0.5672
      9 O1         -0.2579   -2.6535   -0.8897 O.2       1 <0>        -0.5180
     10 C8          0.4339   -4.3978    0.5070 C.ar      1 <0>         0.0949
     11 C9         -0.5296   -5.2736    0.0118 C.ar      1 <0>        -0.0801
     12 C10        -0.5942   -6.5615    0.5214 C.ar      1 <0>        -0.0702
     13 C11         0.3080   -6.9279    1.5092 C.ar      1 <0>        -0.1185
     14 C12         1.2397   -6.0044    1.9542 C.ar      1 <0>         0.1128
     15 N2          1.2823   -4.7906    1.4493 N.ar      1 <0>        -0.4394
     16 I1         -2.0223   -7.9224   -0.1837 I         1 <0>        -0.0147
     17 O2          3.7387   -0.6158    0.6977 O.3       1 <0>        -0.2582
     18 C13         4.8271    0.1798    0.8486 C.ar      1 <0>         0.0480
     19 C14         5.8735    0.1009   -0.0627 C.ar      1 <0>        -0.1540
     20 C15         6.9857    0.9050    0.0810 C.ar      1 <0>        -0.0851
     21 C16         7.0656    1.8032    1.1444 C.ar      1 <0>        -0.1121
     22 C17         6.0052    1.8861    2.0707 C.ar      1 <0>        -0.0632
     23 C18         4.8884    1.0748    1.9112 C.ar      1 <0>        -0.1310
     24 C19         6.0793    2.8342    3.2019 C.2       1 <0>         0.5611
     25 O3          6.6088    2.4948    4.2503 O.co2     1 <0>        -0.6880
     26 O4          5.6111    3.9580    3.0893 O.co2     1 <0>        -0.6966
     27 C20         8.2537    2.6625    1.3001 C.2       1 <0>         0.5137
     28 O5          9.1425    2.6351    0.4604 O.co2     1 <0>        -0.7145
     29 O6          8.3504    3.4025    2.2691 O.co2     1 <0>        -0.6364
     30 H1         -0.5437    1.4781   -1.4057 H         1 <0>         0.1227
     31 H2          1.5000    2.8271   -1.1714 H         1 <0>         0.1254
     32 H3          3.5240    1.8430   -0.1765 H         1 <0>         0.1427
     33 H4         -0.5714   -0.8646   -0.6538 H         1 <0>         0.1556
     34 H5          2.1120   -2.4793    1.0813 H         1 <0>         0.4273
     35 H6         -1.2166   -4.9539   -0.7578 H         1 <0>         0.1567
     36 H7          0.2841   -7.9233    1.9275 H         1 <0>         0.1482
     37 H8          1.9436   -6.2864    2.7231 H         1 <0>         0.1760
     38 H9          5.8159   -0.5937   -0.8877 H         1 <0>         0.1127
     39 H10         7.7953    0.8381   -0.6307 H         1 <0>         0.1278
     40 H11         4.0710    1.1358    2.6145 H         1 <0>         0.1144
@<TRIPOS>BOND
     1    1    6 ar
     2    1    2 ar
     3    1   30 1
     4    2    3 ar
     5    2   31 1
     6    3    4 ar
     7    3   32 1
     8    4    5 ar
     9    4   17 1
    10    5    6 ar
    11    5    7 1
    12    6   33 1
    13    7    8 am
    14    7   34 1
    15    8    9 2
    16    8   10 1
    17   10   15 ar
    18   10   11 ar
    19   11   12 ar
    20   11   35 1
    21   12   13 ar
    22   12   16 1
    23   13   14 ar
    24   13   36 1
    25   14   15 ar
    26   14   37 1
    27   17   18 1
    28   18   23 ar
    29   18   19 ar
    30   19   20 ar
    31   19   38 1
    32   20   21 ar
    33   20   39 1
    34   21   22 ar
    35   21   27 1
    36   22   23 ar
    37   22   24 1
    38   23   40 1
    39   24   25 2
    40   24   26 1
    41   27   28 2
    42   27   29 1
@<TRIPOS>MOLECULE
CHEMBL131644
   44    46     0     0     0
SMALL
USER_CHARGES

@<TRIPOS>ATOM
      1 C1         -0.3961    1.4764   -1.3286 C.3       1 <0>         0.0244
      2 O1         -0.4138    0.0548   -1.4729 O.3       1 <0>        -0.3083
      3 C2         -1.4632   -0.6075   -0.9226 C.ar      1 <0>         0.1607
      4 C3         -2.4718    0.0828   -0.2560 C.ar      1 <0>        -0.2437
      5 C4         -3.5268   -0.6236    0.2925 C.ar      1 <0>         0.1410
      6 N1         -3.5887   -1.9345    0.1930 N.ar      1 <0>        -0.4763
      7 C5         -2.6493   -2.6336   -0.4336 C.ar      1 <0>         0.1212
      8 C6         -1.5601   -1.9932   -1.0160 C.ar      1 <0>        -0.1424
      9 C7         -2.7650   -4.1081   -0.5178 C.2       1 <0>         0.5708
     10 O2         -1.9085   -4.7531   -1.0900 O.2       1 <0>        -0.5195
     11 N2         -3.8201   -4.7342    0.0401 N.am      1 <0>        -0.6333
     12 C8         -3.9725   -6.1177   -0.1097 C.ar      1 <0>         0.0990
     13 C9         -2.8556   -6.9398   -0.1545 C.ar      1 <0>        -0.0894
     14 C10        -3.0087   -8.3052   -0.3025 C.ar      1 <0>        -0.1506
     15 C11        -4.2731   -8.8557   -0.4064 C.ar      1 <0>        -0.0895
     16 C12        -5.3906   -8.0433   -0.3632 C.ar      1 <0>        -0.1742
     17 C13        -5.2464   -6.6737   -0.2087 C.ar      1 <0>         0.1202
     18 O3         -6.3447   -5.8740   -0.1595 O.3       1 <0>        -0.2529
     19 C14        -7.5644   -6.4676   -0.1422 C.ar      1 <0>         0.0506
     20 C15        -7.9536   -7.2169    0.9617 C.ar      1 <0>        -0.1720
     21 C16        -9.1917   -7.8256    0.9902 C.ar      1 <0>        -0.0825
     22 C17       -10.0613   -7.6911   -0.0915 C.ar      1 <0>        -0.1152
     23 C18        -9.6695   -6.9310   -1.2131 C.ar      1 <0>        -0.0613
     24 C19        -8.4220   -6.3189   -1.2268 C.ar      1 <0>        -0.1203
     25 C20       -10.5828   -6.7821   -2.3654 C.2       1 <0>         0.5608
     26 O4        -10.6019   -7.6319   -3.2441 O.co2     1 <0>        -0.6841
     27 O5        -11.3193   -5.8091   -2.4399 O.co2     1 <0>        -0.6992
     28 C21       -11.3844   -8.3412   -0.0630 C.2       1 <0>         0.5139
     29 O6        -11.7600   -8.9196    0.9470 O.co2     1 <0>        -0.7151
     30 O7        -12.1064   -8.3020   -1.0496 O.co2     1 <0>        -0.6368
     31 H1          0.4935    1.8797   -1.8124 H         1 <0>         0.1039
     32 H2         -1.2862    1.8999   -1.7938 H         1 <0>         0.0601
     33 H3         -0.3821    1.7339   -0.2696 H         1 <0>         0.0589
     34 H4         -2.4307    1.1584   -0.1678 H         1 <0>         0.1441
     35 H5         -4.3112   -0.0917    0.8104 H         1 <0>         0.1687
     36 H6         -0.7994   -2.5627   -1.5292 H         1 <0>         0.1567
     37 H7         -4.4738   -4.2262    0.5455 H         1 <0>         0.4253
     38 H8         -1.8669   -6.5127   -0.0740 H         1 <0>         0.1414
     39 H9         -2.1386   -8.9440   -0.3376 H         1 <0>         0.1225
     40 H10        -4.3876   -9.9234   -0.5220 H         1 <0>         0.1249
     41 H11        -6.3765   -8.4766   -0.4453 H         1 <0>         0.1432
     42 H12        -7.2833   -7.3237    1.8017 H         1 <0>         0.1115
     43 H13        -9.4874   -8.4070    1.8510 H         1 <0>         0.1265
     44 H14        -8.1173   -5.7318   -2.0805 H         1 <0>         0.1162
@<TRIPOS>BOND
     1    1    2 1
     2    1   31 1
     3    1   32 1
     4    1   33 1
     5    2    3 1
     6    3    8 ar
     7    3    4 ar
     8    4    5 ar
     9    4   34 1
    10    5    6 ar
    11    5   35 1
    12    6    7 ar
    13    7    8 ar
    14    7    9 1
    15    8   36 1
    16    9   10 2
    17    9   11 am
    18   11   12 1
    19   11   37 1
    20   12   17 ar
    21   12   13 ar
    22   13   14 ar
    23   13   38 1
    24   14   15 ar
    25   14   39 1
    26   15   16 ar
    27   15   40 1
    28   16   17 ar
    29   16   41 1
    30   17   18 1
    31   18   19 1
    32   19   24 ar
    33   19   20 ar
    34   20   21 ar
    35   20   42 1
    36   21   22 ar
    37   21   43 1
    38   22   23 ar
    39   22   28 1
    40   23   24 ar
    41   23   25 1
    42   24   44 1
    43   25   26 2
    44   25   27 1
    45   28   29 2
    46   28   30 1
@<TRIPOS>MOLECULE
CHEMBL215137
   21    21     0     0     0
SMALL
USER_CHARGES

@<TRIPOS>ATOM
      1 C1         -0.0181    1.4814    0.0102 C.3       1 <0>        -0.0360
      2 C2          1.4704    1.8907   -0.0018 C.3       1 <0>         0.0487
      3 H1          1.6139    2.7789   -0.6172 H         1 <0>         0.1181
      4 C3          2.2123    0.6866   -0.6178 C.3       1 <0>         0.1006
      5 H2          2.9273    0.2771    0.0957 H         1 <0>         0.1105
      6 C4          1.1096   -0.3490   -0.9261 C.3       1 <0>         0.0419
      7 H3          0.7806   -0.2572   -1.9612 H         1 <0>         0.1632
      8 N1          0.0021   -0.0041    0.0020 N.4       1 <0>        -0.5084
      9 C5          1.6169   -1.7662   -0.6523 C.3       1 <0>         0.0591
     10 O1          0.6246   -2.7131   -1.0532 O.3       1 <0>        -0.5766
     11 O2          2.8797    1.0767   -1.8196 O.3       1 <0>        -0.5400
     12 O3          1.9299    2.1310    1.3298 O.3       1 <0>        -0.5502
     13 H4         -0.5064    1.8500    0.9123 H         1 <0>         0.1450
     14 H5         -0.5235    1.8596   -0.8784 H         1 <0>         0.1478
     15 H6          0.1931   -0.3595    0.9268 H         1 <0>         0.4333
     16 H7          2.5333   -1.9394   -1.2164 H         1 <0>         0.1010
     17 H8          1.8188   -1.8804    0.4128 H         1 <0>         0.0752
     18 H9          0.8790   -3.6347   -0.9082 H         1 <0>         0.4115
     19 H10         3.5534    1.7585   -1.6919 H         1 <0>         0.4100
     20 H11         1.4670    2.8496    1.7819 H         1 <0>         0.4029
     21 H12        -0.8738   -0.3670   -0.3434 H         1 <0>         0.4424
@<TRIPOS>BOND
     1    1    8 1
     2    1    2 1
     3    1   13 1
     4    1   14 1
     5    2    3 1
     6    2    4 1
     7    2   12 1
     8    4    5 1
     9    4    6 1
    10    4   11 1
    11    6    7 1
    12    6    8 1
    13    6    9 1
    14    8   15 1
    15    8   21 1
    16    9   10 1
    17    9   16 1
    18    9   17 1
    19   10   18 1
    20   11   19 1
    21   12   20 1
@<TRIPOS>MOLECULE
CHEMBL136573
   41    44     0     0     0
SMALL
USER_CHARGES

@<TRIPOS>ATOM
      1 C1         -0.0178    1.4608    0.0101 C.3       1 <0>         0.0663
      2 N1          0.0021   -0.0041    0.0020 N.am      1 <0>        -0.5518
      3 C2         -1.2031   -0.7117    0.0039 C.ar      1 <0>         0.1663
      4 C3         -2.3946   -0.0532   -0.2745 C.ar      1 <0>        -0.1532
      5 C4         -3.5833   -0.7556   -0.2871 C.ar      1 <0>        -0.0835
      6 C5         -3.5891   -2.1133   -0.0240 C.ar      1 <0>        -0.1413
      7 C6         -2.4060   -2.7702    0.2593 C.ar      1 <0>        -0.0793
      8 C7         -1.2145   -2.0714    0.2799 C.ar      1 <0>        -0.1376
      9 C8          0.0693   -2.7829    0.6224 C.3       1 <0>        -0.0881
     10 C9          1.2289   -2.1513   -0.1482 C.3       1 <0>         0.1391
     11 C10         1.1792   -0.6529   -0.0127 C.2       1 <0>         0.5041
     12 O1          2.2121   -0.0251    0.0880 O.2       1 <0>        -0.4932
     13 N2          1.1257   -2.5112   -1.5645 N.am      1 <0>        -0.7183
     14 C11         2.2289   -2.5239   -2.3387 C.2       1 <0>         0.5836
     15 O2          3.3103   -2.2366   -1.8614 O.2       1 <0>        -0.4933
     16 C12         2.1253   -2.8851   -3.7605 C.2       1 <0>         0.0194
     17 C13         3.1621   -2.9393   -4.6369 C.2       1 <0>        -0.0961
     18 C14         2.6427   -3.3247   -5.8964 C.ar      1 <0>        -0.0959
     19 C15         3.2258   -3.5405   -7.1522 C.ar      1 <0>        -0.0957
     20 C16         2.4447   -3.9165   -8.2080 C.ar      1 <0>         0.0741
     21 C17         1.0733   -4.0875   -8.0480 C.ar      1 <0>        -0.1164
     22 C18         0.4790   -3.8810   -6.8236 C.ar      1 <0>        -0.1005
     23 C19         1.2546   -3.4975   -5.7330 C.ar      1 <0>         0.1058
     24 N3          0.9593   -3.2291   -4.4164 N.pl3     1 <0>        -0.5759
     25 H1          0.0771   -3.2718   -4.0153 H         1 <0>         0.4185
     26 F1          3.0088   -4.1236   -9.4181 F         1 <0>        -0.1394
     27 H2          1.0048    1.8381    0.0023 H         1 <0>         0.0967
     28 H3         -0.5450    1.8219   -0.8730 H         1 <0>         0.0701
     29 H4         -0.5280    1.8123    0.9069 H         1 <0>         0.0725
     30 H5         -2.3909    1.0070   -0.4806 H         1 <0>         0.1303
     31 H6         -4.5098   -0.2440   -0.5023 H         1 <0>         0.1297
     32 H7         -4.5196   -2.6614   -0.0396 H         1 <0>         0.1279
     33 H8         -2.4132   -3.8306    0.4644 H         1 <0>         0.1313
     34 H9          0.2563   -2.6984    1.6929 H         1 <0>         0.1047
     35 H10        -0.0158   -3.8352    0.3516 H         1 <0>         0.1024
     36 H11         2.1733   -2.5216    0.2508 H         1 <0>         0.1342
     37 H12         0.2634   -2.7402   -1.9452 H         1 <0>         0.4014
     38 H13         4.1970   -2.7263   -4.4131 H         1 <0>         0.1618
     39 H14         4.2895   -3.4096   -7.2850 H         1 <0>         0.1411
     40 H15         0.4692   -4.3847   -8.8925 H         1 <0>         0.1430
     41 H16        -0.5864   -4.0166   -6.7093 H         1 <0>         0.1354
@<TRIPOS>BOND
     1    1    2 1
     2    1   27 1
     3    1   28 1
     4    1   29 1
     5    2   11 am
     6    2    3 1
     7    3    8 ar
     8    3    4 ar
     9    4    5 ar
    10    4   30 1
    11    5    6 ar
    12    5   31 1
    13    6    7 ar
    14    6   32 1
    15    7    8 ar
    16    7   33 1
    17    8    9 1
    18    9   10 1
    19    9   34 1
    20    9   35 1
    21   10   11 1
    22   10   13 1
    23   10   36 1
    24   11   12 2
    25   13   14 am
    26   13   37 1
    27   14   15 2
    28   14   16 1
    29   16   24 1
    30   16   17 2
    31   17   18 1
    32   17   38 1
    33   18   23 ar
    34   18   19 ar
    35   19   20 ar
    36   19   39 1
    37   20   21 ar
    38   20   26 1
    39   21   22 ar
    40   21   40 1
    41   22   23 ar
    42   22   41 1
    43   23   24 1
    44   24   25 1
@<TRIPOS>MOLECULE
CHEMBL136573__1
   41    44     0     0     0
SMALL
USER_CHARGES

@<TRIPOS>ATOM
      1 C1         -0.0178    1.4608    0.0101 C.3       1 <0>         0.0663
      2 N1          0.0021   -0.0041    0.0020 N.am      1 <0>        -0.5519
      3 C2         -1.2031   -0.7117    0.0039 C.ar      1 <0>         0.1665
      4 C3         -2.3917   -0.0565    0.3017 C.ar      1 <0>        -0.1532
      5 C4         -3.5803   -0.7591    0.3180 C.ar      1 <0>        -0.0834
      6 C5         -3.5888   -2.1137    0.0393 C.ar      1 <0>        -0.1414
      7 C6         -2.4084   -2.7674   -0.2624 C.ar      1 <0>        -0.0792
      8 C7         -1.2173   -2.0681   -0.2876 C.ar      1 <0>        -0.1378
      9 C8          0.0630   -2.7755   -0.6510 C.3       1 <0>        -0.0884
     10 C9          1.2302   -2.1528    0.1153 C.3       1 <0>         0.1390
     11 C10         1.1792   -0.6529   -0.0127 C.2       1 <0>         0.5041
     12 O1          2.2100   -0.0239   -0.1263 O.2       1 <0>        -0.4931
     13 N2          1.1410   -2.5290    1.5283 N.am      1 <0>        -0.7177
     14 C11         2.2518   -2.5506    2.2913 C.2       1 <0>         0.5837
     15 O2          3.3285   -2.2578    1.8067 O.2       1 <0>        -0.4935
     16 C12         2.1623   -2.9282    3.7098 C.2       1 <0>         0.0193
     17 C13         3.2060   -2.9812    4.5782 C.2       1 <0>        -0.0960
     18 C14         2.6997   -3.3855    5.8370 C.ar      1 <0>        -0.0960
     19 C15         3.2941   -3.6088    7.0862 C.ar      1 <0>        -0.0957
     20 C16         2.5247   -4.0043    8.1435 C.ar      1 <0>         0.0740
     21 C17         1.1540   -4.1877    7.9915 C.ar      1 <0>        -0.1163
     22 C18         0.5487   -3.9742    6.7736 C.ar      1 <0>        -0.1006
     23 C19         1.3123   -3.5708    5.6817 C.ar      1 <0>         0.1059
     24 N3          1.0028   -3.2798    4.3732 N.pl3     1 <0>        -0.5758
     25 H1          0.1167   -3.3178    3.9804 H         1 <0>         0.4185
     26 F1          3.0998   -4.2195    9.3469 F         1 <0>        -0.1393
     27 H2          1.0048    1.8381    0.0023 H         1 <0>         0.0967
     28 H3         -0.5450    1.8219   -0.8730 H         1 <0>         0.0723
     29 H4         -0.5280    1.8123    0.9069 H         1 <0>         0.0703
     30 H5         -2.3859    1.0011    0.5206 H         1 <0>         0.1303
     31 H6         -4.5045   -0.2502    0.5489 H         1 <0>         0.1297
     32 H7         -4.5191   -2.6620    0.0577 H         1 <0>         0.1279
     33 H8         -2.4177   -3.8254   -0.4789 H         1 <0>         0.1313
     34 H9         -0.0195   -3.8310   -0.3915 H         1 <0>         0.1024
     35 H10         0.2394   -2.6787   -1.7223 H         1 <0>         0.1047
     36 H11         2.1706   -2.5184   -0.2972 H         1 <0>         0.1339
     37 H12         0.2825   -2.7625    1.9148 H         1 <0>         0.4015
     38 H13         4.2370   -2.7556    4.3491 H         1 <0>         0.1618
     39 H14         4.3575   -3.4690    7.2126 H         1 <0>         0.1410
     40 H15         0.5592   -4.5010    8.8368 H         1 <0>         0.1430
     41 H16        -0.5161   -4.1189    6.6656 H         1 <0>         0.1354
@<TRIPOS>BOND
     1    1    2 1
     2    1   27 1
     3    1   28 1
     4    1   29 1
     5    2   11 am
     6    2    3 1
     7    3    8 ar
     8    3    4 ar
     9    4    5 ar
    10    4   30 1
    11    5    6 ar
    12    5   31 1
    13    6    7 ar
    14    6   32 1
    15    7    8 ar
    16    7   33 1
    17    8    9 1
    18    9   10 1
    19    9   34 1
    20    9   35 1
    21   10   11 1
    22   10   13 1
    23   10   36 1
    24   11   12 2
    25   13   14 am
    26   13   37 1
    27   14   15 2
    28   14   16 1
    29   16   24 1
    30   16   17 2
    31   17   18 1
    32   17   38 1
    33   18   23 ar
    34   18   19 ar
    35   19   20 ar
    36   19   39 1
    37   20   21 ar
    38   20   26 1
    39   21   22 ar
    40   21   40 1
    41   22   23 ar
    42   22   41 1
    43   23   24 1
    44   24   25 1
@<TRIPOS>MOLECULE
CHEMBL442404
   49    52     0     0     0
SMALL
USER_CHARGES

@<TRIPOS>ATOM
      1 C1          0.1204    0.8135   -1.7810 C.ar      1 <0>        -0.1283
      2 C2          1.2468    1.6326   -1.7313 C.ar      1 <0>        -0.1188
      3 C3          2.4402    1.1565   -1.2816 C.ar      1 <0>        -0.0998
      4 C4          2.5417   -0.1801   -0.8597 C.ar      1 <0>        -0.0219
      5 C5          3.7585   -0.7037   -0.3893 C.ar      1 <0>        -0.1682
      6 C6          3.8239   -2.0053    0.0133 C.ar      1 <0>         0.1159
      7 C7          2.6888   -2.8315   -0.0361 C.ar      1 <0>         0.1291
      8 C8          1.4934   -2.3503   -0.4884 C.ar      1 <0>        -0.0971
      9 C9          1.3958   -1.0133   -0.9098 C.ar      1 <0>        -0.0654
     10 C10         0.1810   -0.4861   -1.3807 C.ar      1 <0>        -0.0993
     11 N1          2.7841   -4.1627    0.3824 N.am      1 <0>        -0.6456
     12 C11         1.9170   -5.0808   -0.0883 C.2       1 <0>         0.5570
     13 O1          1.1070   -4.7713   -0.9403 O.2       1 <0>        -0.5101
     14 C12         1.9509   -6.4642    0.4313 C.ar      1 <0>        -0.1255
     15 C13         2.8761   -6.8215    1.4140 C.ar      1 <0>        -0.0335
     16 C14         2.9021   -8.1140    1.8949 C.ar      1 <0>        -0.1174
     17 C15         2.0142   -9.0557    1.4053 C.ar      1 <0>        -0.0332
     18 C16         1.0949   -8.7083    0.4316 C.ar      1 <0>        -0.0587
     19 C17         1.0544   -7.4174   -0.0540 C.ar      1 <0>         0.0028
     20 N2          0.1490   -9.7221   -0.0863 N.pl3     1 <0>         0.0356
     21 O2          0.1802  -10.8524    0.3416 O.2       1 <0>        -0.1585
     22 O3         -0.6549   -9.4199   -0.9372 O.3       1 <0>        -0.1530
     23 O4          5.0016   -2.5091    0.4673 O.3       1 <0>        -0.2604
     24 C18         6.0681   -1.6735    0.5345 C.ar      1 <0>         0.0440
     25 C19         7.0471   -1.7205   -0.4509 C.ar      1 <0>        -0.1523
     26 C20         8.1366   -0.8756   -0.3926 C.ar      1 <0>        -0.0851
     27 C21         8.2611    0.0322    0.6582 C.ar      1 <0>        -0.1094
     28 C22         7.2692    0.0829    1.6596 C.ar      1 <0>        -0.0628
     29 C23         6.1741   -0.7696    1.5860 C.ar      1 <0>        -0.1309
     30 C24         7.3910    1.0408    2.7783 C.2       1 <0>         0.5603
     31 O5          8.0151    0.7312    3.7830 O.co2     1 <0>        -0.6865
     32 O6          6.8678    2.1430    2.6991 O.co2     1 <0>        -0.6962
     33 C25         9.4251    0.9352    0.7227 C.2       1 <0>         0.5129
     34 O7         10.2409    0.9472   -0.1885 O.co2     1 <0>        -0.7134
     35 O8          9.5747    1.6721    1.6873 O.co2     1 <0>        -0.6353
     36 H1         -0.8155    1.2171   -2.1381 H         1 <0>         0.1174
     37 H2          1.1719    2.6603   -2.0549 H         1 <0>         0.1204
     38 H3          3.3048    1.8028   -1.2495 H         1 <0>         0.1316
     39 H4          4.6378   -0.0781   -0.3471 H         1 <0>         0.1493
     40 H5          0.6271   -2.9944   -0.5225 H         1 <0>         0.1575
     41 H6         -0.7002   -1.1090   -1.4245 H         1 <0>         0.1223
     42 H7          3.4743   -4.4250    1.0115 H         1 <0>         0.4172
     43 H8          3.5700   -6.0877    1.7964 H         1 <0>         0.1523
     44 H9          3.6172   -8.3918    2.6550 H         1 <0>         0.1586
     45 H10         2.0392  -10.0666    1.7847 H         1 <0>         0.1587
     46 H11         0.3336   -7.1464   -0.8112 H         1 <0>         0.1678
     47 H12         6.9548   -2.4224   -1.2665 H         1 <0>         0.1129
     48 H13         8.8938   -0.9179   -1.1616 H         1 <0>         0.1285
     49 H14         5.4088   -0.7335    2.3471 H         1 <0>         0.1145
@<TRIPOS>BOND
     1    1   10 ar
     2    1    2 ar
     3    1   36 1
     4    2    3 ar
     5    2   37 1
     6    3    4 ar
     7    3   38 1
     8    4    9 ar
     9    4    5 ar
    10    5    6 ar
    11    5   39 1
    12    6    7 ar
    13    6   23 1
    14    7    8 ar
    15    7   11 1
    16    8    9 ar
    17    8   40 1
    18    9   10 ar
    19   10   41 1
    20   11   12 am
    21   11   42 1
    22   12   13 2
    23   12   14 1
    24   14   19 ar
    25   14   15 ar
    26   15   16 ar
    27   15   43 1
    28   16   17 ar
    29   16   44 1
    30   17   18 ar
    31   17   45 1
    32   18   19 ar
    33   18   20 1
    34   19   46 1
    35   20   21 2
    36   20   22 1
    37   23   24 1
    38   24   29 ar
    39   24   25 ar
    40   25   26 ar
    41   25   47 1
    42   26   27 ar
    43   26   48 1
    44   27   28 ar
    45   27   33 1
    46   28   29 ar
    47   28   30 1
    48   29   49 1
    49   30   31 2
    50   30   32 1
    51   33   34 2
    52   33   35 1
@<TRIPOS>MOLECULE
CHEMBL372862
   45    48     0     0     0
SMALL
USER_CHARGES

@<TRIPOS>ATOM
      1 C1          0.1157    1.4271    0.9276 C.3       1 <0>         0.0753
      2 N1          0.2603   -0.0213    1.0929 N.am      1 <0>        -0.4966
      3 C2         -0.6029   -0.7206    1.9124 C.ar      1 <0>         0.3043
      4 C3         -0.4535   -2.1116    2.0621 C.ar      1 <0>         0.0397
      5 C4         -1.3425   -2.8028    2.9005 C.ar      1 <0>        -0.0149
      6 C5         -2.3289   -2.0816    3.5438 C.ar      1 <0>        -0.1821
      7 C6         -2.4127   -0.7122    3.3462 C.ar      1 <0>         0.1465
      8 N2         -1.5695   -0.0807    2.5562 N.ar      1 <0>        -0.4974
      9 N3          0.5240   -2.7774    1.4158 N.2       1 <0>        -0.4777
     10 C7          1.3607   -2.1468    0.6305 C.2       1 <0>         0.3620
     11 C8          1.2360   -0.6895    0.4412 C.2       1 <0>         0.5164
     12 O1          2.0062   -0.0956   -0.2903 O.2       1 <0>        -0.5037
     13 N4          2.3587   -2.8479   -0.0246 N.pl3     1 <0>        -0.6256
     14 C9          2.4027   -4.2362    0.0579 C.ar      1 <0>         0.1875
     15 C10         1.2200   -4.9705    0.0476 C.ar      1 <0>        -0.1201
     16 C11         1.2603   -6.3437    0.1296 C.ar      1 <0>        -0.0346
     17 C12         2.4904   -7.0011    0.2227 C.ar      1 <0>        -0.1535
     18 C13         3.6762   -6.2610    0.2323 C.ar      1 <0>        -0.0620
     19 C14         3.6296   -4.8883    0.1449 C.ar      1 <0>        -0.1508
     20 C15         2.5370   -8.4732    0.3112 C.2       1 <0>         0.5638
     21 O2          1.5047   -9.1157    0.3031 O.2       1 <0>        -0.5341
     22 N5          3.7238   -9.1056    0.4009 N.am      1 <0>        -0.7259
     23 C16         3.7700  -10.5673    0.4888 C.3       1 <0>         0.2079
     24 C17         5.2046  -11.0199    0.5790 C.2       1 <0>        -0.1767
     25 C18         5.9689  -11.2199    1.6804 C.2       1 <0>        -0.1305
     26 C19         7.2755  -11.6424    1.5220 C.2       1 <0>        -0.1637
     27 C20         7.7539  -11.8441    0.2698 C.2       1 <0>        -0.1622
     28 S1          6.3360  -11.4393   -0.7368 S.3       1 <0>         0.0524
     29 H1          0.8814    1.7930    0.2435 H         1 <0>         0.0984
     30 H2         -0.8709    1.6498    0.5214 H         1 <0>         0.0833
     31 H3          0.2292    1.9163    1.8951 H         1 <0>         0.0834
     32 H4         -1.2574   -3.8705    3.0384 H         1 <0>         0.1540
     33 H5         -3.0302   -2.5809    4.1959 H         1 <0>         0.1500
     34 H6         -3.1857   -0.1515    3.8507 H         1 <0>         0.1701
     35 H7          3.0273   -2.3713   -0.5411 H         1 <0>         0.4314
     36 H8          0.2699   -4.4620   -0.0244 H         1 <0>         0.1379
     37 H9          0.3424   -6.9128    0.1222 H         1 <0>         0.1409
     38 H10         4.6281   -6.7661    0.3046 H         1 <0>         0.1296
     39 H11         4.5456   -4.3162    0.1482 H         1 <0>         0.1342
     40 H12         4.5472   -8.5930    0.4074 H         1 <0>         0.4025
     41 H13         3.2291  -10.8952    1.3764 H         1 <0>         0.0936
     42 H14         3.3078  -10.9994   -0.3987 H         1 <0>         0.0861
     43 H15         5.5632  -11.0514    2.6670 H         1 <0>         0.1361
     44 H16         7.9059  -11.8089    2.3829 H         1 <0>         0.1367
     45 H17         8.7365  -12.1692   -0.0387 H         1 <0>         0.1880
@<TRIPOS>BOND
     1    1    2 1
     2    1   29 1
     3    1   30 1
     4    1   31 1
     5    2   11 am
     6    2    3 1
     7    3    8 ar
     8    3    4 ar
     9    4    5 ar
    10    4    9 1
    11    5    6 ar
    12    5   32 1
    13    6    7 ar
    14    6   33 1
    15    7    8 ar
    16    7   34 1
    17    9   10 2
    18   10   11 1
    19   10   13 1
    20   11   12 2
    21   13   14 1
    22   13   35 1
    23   14   19 ar
    24   14   15 ar
    25   15   16 ar
    26   15   36 1
    27   16   17 ar
    28   16   37 1
    29   17   18 ar
    30   17   20 1
    31   18   19 ar
    32   18   38 1
    33   19   39 1
    34   20   21 2
    35   20   22 am
    36   22   23 1
    37   22   40 1
    38   23   24 1
    39   23   41 1
    40   23   42 1
    41   24   28 1
    42   24   25 2
    43   25   26 1
    44   25   43 1
    45   26   27 2
    46   26   44 1
    47   27   28 1
    48   27   45 1
@<TRIPOS>MOLECULE
CHEMBL115341
   63    65     0     0     0
SMALL
USER_CHARGES

@<TRIPOS>ATOM
      1 C1          0.1866    1.6359   -0.0417 C.3       1 <0>        -0.1131
      2 C2          0.0446    0.1367    0.0142 C.2       1 <0>         0.2492
      3 C3         -1.1820   -0.4131    0.0189 C.2       1 <0>        -0.3094
      4 C4         -1.3774   -1.9016    0.0640 C.3       1 <0>         0.0785
      5 C5         -0.1139   -2.5932    0.4909 C.2       1 <0>        -0.2188
      6 C6          1.0784   -1.9560    0.4687 C.2       1 <0>         0.0678
      7 N1          1.1649   -0.6452    0.0539 N.pl3     1 <0>        -0.4868
      8 C7          2.4601   -0.0860   -0.3411 C.3       1 <0>         0.1455
      9 C8          2.6096   -0.1737   -1.8381 C.ar      1 <0>        -0.0987
     10 C9          3.1708   -1.3002   -2.4103 C.ar      1 <0>        -0.0736
     11 C10         3.3101   -1.3855   -3.7831 C.ar      1 <0>        -0.1737
     12 C11         2.8865   -0.3408   -4.5887 C.ar      1 <0>         0.0962
     13 C12         2.3213    0.7929   -4.0127 C.ar      1 <0>         0.0829
     14 C13         2.1801    0.8699   -2.6364 C.ar      1 <0>        -0.1561
     15 O1          1.9040    1.8209   -4.7992 O.3       1 <0>        -0.3113
     16 C14         1.3335    2.9526   -4.1391 C.3       1 <0>         0.0276
     17 O2          3.0233   -0.4229   -5.9392 O.3       1 <0>        -0.3123
     18 C15         3.6125   -1.6160   -6.4603 C.3       1 <0>         0.0272
     19 C16         2.3054   -2.6771    0.8900 C.2       1 <0>         0.5831
     20 O3          2.9580   -3.3037    0.0689 O.co2     1 <0>        -0.6872
     21 O4          2.6628   -2.6441    2.0578 O.co2     1 <0>        -0.6837
     22 C17        -0.1750   -3.9853    0.9407 C.2       1 <0>         0.5237
     23 O5          0.8250   -4.5263    1.3946 O.co2     1 <0>        -0.6571
     24 O6         -1.2260   -4.6081    0.8628 O.co2     1 <0>        -0.7044
     25 C18        -1.7725   -2.3915   -1.3053 C.ar      1 <0>        -0.0129
     26 C19        -0.9240   -2.1995   -2.3796 C.ar      1 <0>        -0.0916
     27 C20        -1.2862   -2.6488   -3.6356 C.ar      1 <0>        -0.1276
     28 C21        -2.4971   -3.2906   -3.8182 C.ar      1 <0>        -0.1324
     29 C22        -3.3461   -3.4832   -2.7450 C.ar      1 <0>        -0.1292
     30 C23        -2.9816   -3.0386   -1.4863 C.ar      1 <0>         0.0025
     31 Cl1        -4.0447   -3.2861   -0.1364 Cl        1 <0>        -0.0625
     32 C24        -2.3163    0.4307   -0.0192 C.2       1 <0>         0.5274
     33 O7         -2.1749    1.6388   -0.0556 O.2       1 <0>        -0.5602
     34 O8         -3.5554   -0.1038   -0.0152 O.3       1 <0>        -0.3302
     35 C25        -4.6552    0.8076   -0.0550 C.3       1 <0>         0.0816
     36 C26        -5.0330    1.0878   -1.5109 C.3       1 <0>        -0.1648
     37 C27        -5.8526    0.1941    0.6735 C.3       1 <0>        -0.1464
     38 H1          1.2412    1.9037    0.0227 H         1 <0>         0.0557
     39 H2         -0.2253    2.0051   -0.9810 H         1 <0>         0.0851
     40 H3         -0.3535    2.0834    0.7926 H         1 <0>         0.0955
     41 H4         -2.1722   -2.1377    0.7716 H         1 <0>         0.0890
     42 H5          2.5150    0.9575   -0.0310 H         1 <0>         0.0843
     43 H6          3.2606   -0.6499    0.1377 H         1 <0>         0.1075
     44 H7          3.5014   -2.1152   -1.7835 H         1 <0>         0.1612
     45 H8          3.7495   -2.2663   -4.2275 H         1 <0>         0.1333
     46 H9          1.7383    1.7471   -2.1872 H         1 <0>         0.1310
     47 H10         1.0436    3.6975   -4.8801 H         1 <0>         0.0930
     48 H11         0.4546    2.6396   -3.5755 H         1 <0>         0.0543
     49 H12         2.0672    3.3840   -3.4580 H         1 <0>         0.0508
     50 H13         3.0061   -2.4755   -6.1745 H         1 <0>         0.0555
     51 H14         3.6624   -1.5518   -7.5472 H         1 <0>         0.0927
     52 H15         4.6184   -1.7307   -6.0565 H         1 <0>         0.0525
     53 H16         0.0219   -1.6979   -2.2377 H         1 <0>         0.1179
     54 H17        -0.6231   -2.4982   -4.4747 H         1 <0>         0.1111
     55 H18        -2.7797   -3.6411   -4.7999 H         1 <0>         0.1145
     56 H19        -4.2922   -3.9842   -2.8878 H         1 <0>         0.1181
     57 H20        -4.3721    1.7403    0.4328 H         1 <0>         0.0739
     58 H21        -4.1799    1.5248   -2.0300 H         1 <0>         0.0576
     59 H22        -5.3162    0.1550   -1.9988 H         1 <0>         0.0627
     60 H23        -5.8719    1.7830   -1.5413 H         1 <0>         0.0604
     61 H24        -5.5835   -0.0055    1.7108 H         1 <0>         0.0616
     62 H25        -6.6916    0.8893    0.6432 H         1 <0>         0.0648
     63 H26        -6.1358   -0.7386    0.1857 H         1 <0>         0.0664
@<TRIPOS>BOND
     1    1    2 1
     2    1   38 1
     3    1   39 1
     4    1   40 1
     5    2    7 1
     6    2    3 2
     7    3    4 1
     8    3   32 1
     9    4    5 1
    10    4   25 1
    11    4   41 1
    12    5    6 2
    13    5   22 1
    14    6    7 1
    15    6   19 1
    16    7    8 1
    17    8    9 1
    18    8   42 1
    19    8   43 1
    20    9   14 ar
    21    9   10 ar
    22   10   11 ar
    23   10   44 1
    24   11   12 ar
    25   11   45 1
    26   12   13 ar
    27   12   17 1
    28   13   14 ar
    29   13   15 1
    30   14   46 1
    31   15   16 1
    32   16   47 1
    33   16   48 1
    34   16   49 1
    35   17   18 1
    36   18   50 1
    37   18   51 1
    38   18   52 1
    39   19   20 2
    40   19   21 1
    41   22   23 2
    42   22   24 1
    43   25   30 ar
    44   25   26 ar
    45   26   27 ar
    46   26   53 1
    47   27   28 ar
    48   27   54 1
    49   28   29 ar
    50   28   55 1
    51   29   30 ar
    52   29   56 1
    53   30   31 1
    54   32   33 2
    55   32   34 1
    56   34   35 1
    57   35   36 1
    58   35   37 1
    59   35   57 1
    60   36   58 1
    61   36   59 1
    62   36   60 1
    63   37   61 1
    64   37   62 1
    65   37   63 1
@<TRIPOS>MOLECULE
CHEMBL115341__1
   63    65     0     0     0
SMALL
USER_CHARGES

@<TRIPOS>ATOM
      1 C1          0.0560    1.4982    0.0612 C.3       1 <0>        -0.1135
      2 C2          0.0397   -0.0082    0.0220 C.2       1 <0>         0.2495
      3 C3         -1.1297   -0.6613    0.1351 C.2       1 <0>        -0.3097
      4 C4         -1.1991   -2.1615    0.1109 C.3       1 <0>         0.0770
      5 C5          0.0733   -2.7460   -0.4336 C.2       1 <0>        -0.2187
      6 C6          1.2027   -2.0085   -0.5261 C.2       1 <0>         0.0667
      7 N1          1.2134   -0.6910   -0.1336 N.pl3     1 <0>        -0.4854
      8 C7          2.4891   -0.0182    0.1233 C.3       1 <0>         0.1441
      9 C8          2.7945   -0.0664    1.5982 C.ar      1 <0>        -0.0958
     10 C9          2.3509    0.9467    2.4279 C.ar      1 <0>        -0.1082
     11 C10         2.6284    0.9071    3.7816 C.ar      1 <0>        -0.1811
     12 C11         3.3521   -0.1499    4.3098 C.ar      1 <0>         0.0908
     13 C12         3.7982   -1.1698    3.4748 C.ar      1 <0>         0.0987
     14 C13         3.5125   -1.1264    2.1196 C.ar      1 <0>        -0.1347
     15 O1          4.5089   -2.2093    3.9884 O.3       1 <0>        -0.3145
     16 C14         4.9343   -3.2200    3.0722 C.3       1 <0>         0.0236
     17 O2          3.6263   -0.1902    5.6412 O.3       1 <0>        -0.3094
     18 C15         3.1373    0.8910    6.4373 C.3       1 <0>         0.0295
     19 C16         2.4419   -2.6255   -1.0614 C.2       1 <0>         0.5826
     20 O3          2.7232   -2.5039   -2.2442 O.co2     1 <0>        -0.6952
     21 O4          3.1807   -3.2550   -0.3194 O.co2     1 <0>        -0.6763
     22 C17         0.0907   -4.1427   -0.8727 C.2       1 <0>         0.5234
     23 O5          1.1420   -4.6596   -1.2280 O.co2     1 <0>        -0.6561
     24 O6         -0.9461   -4.7936   -0.8844 O.co2     1 <0>        -0.7057
     25 C18        -1.4186   -2.6704    1.5123 C.ar      1 <0>        -0.0161
     26 C19        -0.4976   -2.3861    2.5032 C.ar      1 <0>        -0.0909
     27 C20        -0.6987   -2.8528    3.7886 C.ar      1 <0>        -0.1270
     28 C21        -1.8211   -3.6042    4.0841 C.ar      1 <0>        -0.1324
     29 C22        -2.7426   -3.8890    3.0944 C.ar      1 <0>        -0.1285
     30 C23        -2.5446   -3.4173    1.8087 C.ar      1 <0>        -0.0024
     31 Cl1        -3.7050   -3.7691    0.5663 Cl        1 <0>        -0.0603
     32 C24        -2.3238    0.0822    0.2810 C.2       1 <0>         0.5274
     33 O7         -2.2846    1.2982    0.3029 O.2       1 <0>        -0.5597
     34 O8         -3.5068   -0.5569    0.3959 O.3       1 <0>        -0.3303
     35 C25        -4.6725    0.2570    0.5402 C.3       1 <0>         0.0816
     36 C26        -5.2445    0.5783   -0.8421 C.3       1 <0>        -0.1669
     37 C27        -5.7205   -0.4945    1.3636 C.3       1 <0>        -0.1450
     38 H1          1.0869    1.8512    0.0336 H         1 <0>         0.0566
     39 H2         -0.4853    1.8900   -0.8000 H         1 <0>         0.0885
     40 H3         -0.4217    1.8431    0.9782 H         1 <0>         0.0935
     41 H4         -2.0340   -2.4718   -0.5174 H         1 <0>         0.0920
     42 H5          3.2829   -0.5214   -0.4287 H         1 <0>         0.1056
     43 H6          2.4237    1.0206   -0.2005 H         1 <0>         0.0870
     44 H7          1.7867    1.7711    2.0174 H         1 <0>         0.1235
     45 H8          2.2813    1.7001    4.4274 H         1 <0>         0.1281
     46 H9          3.8543   -1.9186    1.4700 H         1 <0>         0.1672
     47 H10         5.4893   -3.9882    3.6106 H         1 <0>         0.0924
     48 H11         4.0626   -3.6684    2.5955 H         1 <0>         0.0744
     49 H12         5.5754   -2.7744    2.3116 H         1 <0>         0.0559
     50 H13         2.0507    0.9343    6.3632 H         1 <0>         0.0513
     51 H14         3.4247    0.7356    7.4771 H         1 <0>         0.0921
     52 H15         3.5634    1.8280    6.0787 H         1 <0>         0.0492
     53 H16         0.3795   -1.7996    2.2729 H         1 <0>         0.1180
     54 H17         0.0213   -2.6308    4.5623 H         1 <0>         0.1121
     55 H18        -1.9776   -3.9688    5.0886 H         1 <0>         0.1150
     56 H19        -3.6191   -4.4762    3.3253 H         1 <0>         0.1186
     57 H20        -4.4077    1.1842    1.0483 H         1 <0>         0.0735
     58 H21        -4.4979    1.1136   -1.4287 H         1 <0>         0.0591
     59 H22        -5.5093   -0.3490   -1.3502 H         1 <0>         0.0631
     60 H23        -6.1336    1.1991   -0.7320 H         1 <0>         0.0607
     61 H24        -5.3130   -0.7234    2.3483 H         1 <0>         0.0607
     62 H25        -6.6096    0.1263    1.4737 H         1 <0>         0.0642
     63 H26        -5.9853   -1.4217    0.8555 H         1 <0>         0.0664
@<TRIPOS>BOND
     1    1    2 1
     2    1   38 1
     3    1   39 1
     4    1   40 1
     5    2    7 1
     6    2    3 2
     7    3    4 1
     8    3   32 1
     9    4    5 1
    10    4   25 1
    11    4   41 1
    12    5    6 2
    13    5   22 1
    14    6    7 1
    15    6   19 1
    16    7    8 1
    17    8    9 1
    18    8   42 1
    19    8   43 1
    20    9   14 ar
    21    9   10 ar
    22   10   11 ar
    23   10   44 1
    24   11   12 ar
    25   11   45 1
    26   12   13 ar
    27   12   17 1
    28   13   14 ar
    29   13   15 1
    30   14   46 1
    31   15   16 1
    32   16   47 1
    33   16   48 1
    34   16   49 1
    35   17   18 1
    36   18   50 1
    37   18   51 1
    38   18   52 1
    39   19   20 2
    40   19   21 1
    41   22   23 2
    42   22   24 1
    43   25   30 ar
    44   25   26 ar
    45   26   27 ar
    46   26   53 1
    47   27   28 ar
    48   27   54 1
    49   28   29 ar
    50   28   55 1
    51   29   30 ar
    52   29   56 1
    53   30   31 1
    54   32   33 2
    55   32   34 1
    56   34   35 1
    57   35   36 1
    58   35   37 1
    59   35   57 1
    60   36   58 1
    61   36   59 1
    62   36   60 1
    63   37   61 1
    64   37   62 1
    65   37   63 1
@<TRIPOS>MOLECULE
CHEMBL194245
   42    45     0     0     0
SMALL
USER_CHARGES

@<TRIPOS>ATOM
      1 C1          0.1188    1.4269    0.9375 C.3       1 <0>         0.0635
      2 N1          0.2631   -0.0218    1.1005 N.am      1 <0>        -0.5062
      3 C2         -0.5983   -0.7242    1.9238 C.ar      1 <0>         0.1088
      4 C3         -1.6129   -0.0597    2.6054 C.ar      1 <0>        -0.1431
      5 C4         -2.4677   -0.7670    3.4231 C.ar      1 <0>        -0.0800
      6 C5         -2.3241   -2.1395    3.5724 C.ar      1 <0>        -0.1286
      7 C6         -1.3354   -2.8111    2.9133 C.ar      1 <0>        -0.0549
      8 C7         -0.4530   -2.1143    2.0750 C.ar      1 <0>         0.0775
      9 N2          0.5235   -2.7787    1.4231 N.2       1 <0>        -0.4786
     10 C8          1.3582   -2.1487    0.6362 C.2       1 <0>         0.3554
     11 C9          1.2359   -0.6915    0.4447 C.2       1 <0>         0.5092
     12 O1          2.0046   -0.0993   -0.2901 O.2       1 <0>        -0.5131
     13 N3          2.3527   -2.8516   -0.0220 N.pl3     1 <0>        -0.6296
     14 C10         2.3941   -4.2400    0.0601 C.ar      1 <0>         0.1952
     15 C11         1.2100   -4.9721    0.0489 C.ar      1 <0>        -0.1193
     16 C12         1.2475   -6.3454    0.1300 C.ar      1 <0>        -0.0297
     17 C13         2.4766   -7.0053    0.2237 C.ar      1 <0>        -0.1548
     18 C14         3.6639   -6.2672    0.2347 C.ar      1 <0>        -0.0623
     19 C15         3.6198   -4.8945    0.1476 C.ar      1 <0>        -0.1510
     20 C16         2.5204   -8.4770    0.3113 C.2       1 <0>         0.5583
     21 O2          1.4869   -9.1177    0.3020 O.2       1 <0>        -0.4657
     22 N4          3.7060   -9.1117    0.4015 N.am      1 <0>        -0.6210
     23 C17         3.7473  -10.4976    0.4840 C.2       1 <0>         0.2741
     24 N5          2.7425  -11.3470    0.4823 N.2       1 <0>        -0.5224
     25 C18         2.9491  -12.6481    0.5678 C.2       1 <0>         0.0635
     26 C19         4.2366  -13.0631    0.6567 C.2       1 <0>        -0.2445
     27 S1          5.0951  -11.4985    0.6029 S.3       1 <0>         0.1059
     28 H1          0.8820    1.7931    0.2508 H         1 <0>         0.1032
     29 H2         -0.8693    1.6506    0.5352 H         1 <0>         0.0821
     30 H3          0.2362    1.9150    1.9050 H         1 <0>         0.0824
     31 H4         -1.7303    1.0082    2.4943 H         1 <0>         0.1347
     32 H5         -3.2545   -0.2496    3.9518 H         1 <0>         0.1346
     33 H6         -3.0010   -2.6812    4.2164 H         1 <0>         0.1351
     34 H7         -1.2328   -3.8790    3.0371 H         1 <0>         0.1415
     35 H8          3.0206   -2.3763   -0.5405 H         1 <0>         0.4307
     36 H9          0.2609   -4.4618   -0.0231 H         1 <0>         0.1399
     37 H10         0.3286   -6.9128    0.1217 H         1 <0>         0.1422
     38 H11         4.6148   -6.7740    0.3070 H         1 <0>         0.1295
     39 H12         4.5368   -4.3240    0.1512 H         1 <0>         0.1361
     40 H13         4.5304   -8.6006    0.4089 H         1 <0>         0.4244
     41 H14         2.1288  -13.3507    0.5673 H         1 <0>         0.1768
     42 H15         4.6338  -14.0644    0.7348 H         1 <0>         0.1999
@<TRIPOS>BOND
     1    1    2 1
     2    1   28 1
     3    1   29 1
     4    1   30 1
     5    2   11 am
     6    2    3 1
     7    3    8 ar
     8    3    4 ar
     9    4    5 ar
    10    4   31 1
    11    5    6 ar
    12    5   32 1
    13    6    7 ar
    14    6   33 1
    15    7    8 ar
    16    7   34 1
    17    8    9 1
    18    9   10 2
    19   10   11 1
    20   10   13 1
    21   11   12 2
    22   13   14 1
    23   13   35 1
    24   14   19 ar
    25   14   15 ar
    26   15   16 ar
    27   15   36 1
    28   16   17 ar
    29   16   37 1
    30   17   18 ar
    31   17   20 1
    32   18   19 ar
    33   18   38 1
    34   19   39 1
    35   20   21 2
    36   20   22 am
    37   22   23 1
    38   22   40 1
    39   23   27 1
    40   23   24 2
    41   24   25 1
    42   25   26 2
    43   25   41 1
    44   26   27 1
    45   26   42 1
@<TRIPOS>MOLECULE
CHEMBL490001
   47    49     0     0     0
SMALL
USER_CHARGES

@<TRIPOS>ATOM
      1 C1         -0.0280    1.3439   -0.3377 C.ar      1 <0>        -0.1005
      2 C2          1.1525    2.0733   -0.4668 C.ar      1 <0>        -0.1174
      3 C3          2.3620    1.4499   -0.4859 C.ar      1 <0>        -0.0937
      4 C4          2.4250    0.0491   -0.3739 C.ar      1 <0>        -0.0646
      5 C5          3.6552   -0.6249   -0.3894 C.ar      1 <0>        -0.0222
      6 C6          3.6768   -2.0054   -0.2763 C.ar      1 <0>        -0.1425
      7 C7          2.4779   -2.7301   -0.1472 C.ar      1 <0>        -0.0937
      8 C8          1.2790   -2.0944   -0.1307 C.ar      1 <0>        -0.1046
      9 C9          1.2236   -0.6928   -0.2426 C.ar      1 <0>        -0.0309
     10 C10        -0.0056   -0.0129   -0.2270 C.ar      1 <0>        -0.1138
     11 C11         4.9682   -2.7219   -0.2919 C.2       1 <0>         0.5660
     12 O1          6.0066   -2.1005   -0.4036 O.2       1 <0>        -0.4608
     13 N1          4.9951   -4.0650   -0.1822 N.am      1 <0>        -0.6858
     14 C12         6.1736   -4.7188   -0.1964 C.2       1 <0>         0.7007
     15 O2          7.2121   -4.0973   -0.3081 O.2       1 <0>        -0.5235
     16 N2          6.2004   -6.0618   -0.0867 N.am      1 <0>        -0.7425
     17 C13         7.4814   -6.7725   -0.1021 C.3       1 <0>         0.2901
     18 H1          8.2470   -6.1324   -0.5406 H         1 <0>         0.1393
     19 C14         7.3463   -8.0504   -0.9343 C.3       1 <0>         0.0437
     20 H2          7.0198   -7.7956   -1.9426 H         1 <0>         0.0811
     21 C15         6.3120   -8.9705   -0.2785 C.3       1 <0>         0.0769
     22 H3          6.2516   -9.9060   -0.8347 H         1 <0>         0.0843
     23 C16         6.7424   -9.2584    1.1631 C.3       1 <0>         0.0922
     24 H4          7.6932   -9.7913    1.1599 H         1 <0>         0.0920
     25 C17         6.9008   -7.9339    1.9143 C.3       1 <0>         0.0990
     26 H5          5.9401   -7.4203    1.9522 H         1 <0>         0.0815
     27 O3          7.8535   -7.1132    1.2349 O.3       1 <0>        -0.3505
     28 C18         7.3883   -8.2099    3.3380 C.3       1 <0>         0.0874
     29 O4          7.4248   -6.9860    4.0747 O.3       1 <0>        -0.5656
     30 O5          5.7488  -10.0583    1.8074 O.3       1 <0>        -0.5485
     31 O6          5.0343   -8.3306   -0.2791 O.3       1 <0>        -0.5422
     32 O7          8.6091   -8.7163   -0.9953 O.3       1 <0>        -0.5430
     33 H6         -0.9748    1.8632   -0.3208 H         1 <0>         0.1275
     34 H7          1.1067    3.1489   -0.5533 H         1 <0>         0.1282
     35 H8          3.2689    2.0276   -0.5868 H         1 <0>         0.1331
     36 H9          4.5777   -0.0722   -0.4891 H         1 <0>         0.1454
     37 H10         2.5120   -3.8061   -0.0605 H         1 <0>         0.1259
     38 H11         0.3671   -2.6644   -0.0314 H         1 <0>         0.1360
     39 H12        -0.9289   -0.5642   -0.1277 H         1 <0>         0.1315
     40 H13         4.1663   -4.5610   -0.0930 H         1 <0>         0.4089
     41 H14         5.3716   -6.5578    0.0025 H         1 <0>         0.4057
     42 H15         6.7078   -8.9076    3.8262 H         1 <0>         0.0718
     43 H16         8.3881   -8.6425    3.3023 H         1 <0>         0.0538
     44 H17         7.7254   -7.0856    4.9884 H         1 <0>         0.3821
     45 H18         5.5936  -10.9120    1.3805 H         1 <0>         0.3845
     46 H19         4.7035   -8.1137   -1.1615 H         1 <0>         0.3849
     47 H20         9.3132   -8.1884   -1.3962 H         1 <0>         0.3929
@<TRIPOS>BOND
     1    1   10 ar
     2    1    2 ar
     3    1   33 1
     4    2    3 ar
     5    2   34 1
     6    3    4 ar
     7    3   35 1
     8    4    9 ar
     9    4    5 ar
    10    5    6 ar
    11    5   36 1
    12    6    7 ar
    13    6   11 1
    14    7    8 ar
    15    7   37 1
    16    8    9 ar
    17    8   38 1
    18    9   10 ar
    19   10   39 1
    20   11   12 2
    21   11   13 am
    22   13   14 am
    23   13   40 1
    24   14   15 2
    25   14   16 am
    26   16   17 1
    27   16   41 1
    28   17   18 1
    29   17   27 1
    30   17   19 1
    31   19   20 1
    32   19   21 1
    33   19   32 1
    34   21   22 1
    35   21   23 1
    36   21   31 1
    37   23   24 1
    38   23   25 1
    39   23   30 1
    40   25   26 1
    41   25   27 1
    42   25   28 1
    43   28   29 1
    44   28   42 1
    45   28   43 1
    46   29   44 1
    47   30   45 1
    48   31   46 1
    49   32   47 1
@<TRIPOS>MOLECULE
CHEMBL370173
   62    66     0     0     0
SMALL
USER_CHARGES

@<TRIPOS>ATOM
      1 C1          0.0683    1.3394    0.7523 C.ar      1 <0>        -0.1280
      2 C2          1.2282    2.0690    0.5309 C.ar      1 <0>        -0.0800
      3 C3          2.4112    1.4276    0.2329 C.ar      1 <0>        -0.1440
      4 C4          2.4452    0.0390    0.1533 C.ar      1 <0>         0.1091
      5 C5          1.2705   -0.6998    0.3780 C.ar      1 <0>         0.0792
      6 C6          0.0794   -0.0235    0.6792 C.ar      1 <0>        -0.0557
      7 N1          1.2811   -2.0470    0.3064 N.2       1 <0>        -0.4787
      8 C7          2.3810   -2.6986    0.0264 C.2       1 <0>         0.3561
      9 C8          3.6350   -1.9612   -0.2161 C.2       1 <0>         0.5097
     10 O1          4.6621   -2.5601   -0.4765 O.2       1 <0>        -0.5114
     11 N2          3.6285   -0.6122   -0.1448 N.am      1 <0>        -0.5017
     12 C9          4.8570    0.1502   -0.3808 C.3       1 <0>         0.1025
     13 C10         5.5994    0.3437    0.9430 C.3       1 <0>         0.0415
     14 N3          6.8312    1.1082    0.7063 N.3       1 <0>        -0.5319
     15 C11         7.7807    0.3379   -0.1101 C.3       1 <0>         0.0114
     16 C12         9.0218    1.1921   -0.3820 C.3       1 <0>         0.0638
     17 O2          9.5906    1.6072    0.8627 O.3       1 <0>        -0.3840
     18 C13         8.6934    2.3605    1.6830 C.3       1 <0>         0.0638
     19 C14         7.4490    1.5182    1.9758 C.3       1 <0>         0.0181
     20 N4          2.3675   -4.0812   -0.0417 N.pl3     1 <0>        -0.6296
     21 C15         1.1649   -4.7716    0.0721 C.ar      1 <0>         0.1902
     22 C16         0.0107   -4.2574   -0.5124 C.ar      1 <0>        -0.1201
     23 C17        -1.1803   -4.9380   -0.4017 C.ar      1 <0>        -0.0343
     24 C18        -1.2304   -6.1467    0.2986 C.ar      1 <0>        -0.1549
     25 C19        -0.0699   -6.6605    0.8844 C.ar      1 <0>        -0.0620
     26 C20         1.1193   -5.9781    0.7653 C.ar      1 <0>        -0.1528
     27 C21        -2.5059   -6.8786    0.4196 C.2       1 <0>         0.5640
     28 O3         -3.5147   -6.4305   -0.0901 O.2       1 <0>        -0.5342
     29 N5         -2.5526   -8.0440    1.0951 N.am      1 <0>        -0.7263
     30 C22        -3.8190   -8.7707    1.2153 C.3       1 <0>         0.2078
     31 C23        -3.6011  -10.0315    2.0115 C.2       1 <0>        -0.1763
     32 C24        -3.6991  -10.2236    3.3497 C.2       1 <0>        -0.1307
     33 C25        -3.4524  -11.4818    3.8661 C.2       1 <0>        -0.1636
     34 C26        -3.1198  -12.4864    3.0190 C.2       1 <0>        -0.1625
     35 S1         -3.1545  -11.6614    1.4362 S.3       1 <0>         0.0525
     36 H1         -0.8508    1.8548    0.9890 H         1 <0>         0.1347
     37 H2          1.2035    3.1469    0.5923 H         1 <0>         0.1343
     38 H3          3.3097    2.0017    0.0611 H         1 <0>         0.1368
     39 H4         -0.8290   -0.5810    0.8536 H         1 <0>         0.1411
     40 H5          5.4938   -0.3938   -1.0784 H         1 <0>         0.1014
     41 H6          4.6053    1.1236   -0.8019 H         1 <0>         0.1066
     42 H7          4.9625    0.8877    1.6405 H         1 <0>         0.0843
     43 H8          5.8510   -0.6297    1.3641 H         1 <0>         0.0449
     44 H9          8.0711   -0.5661    0.4251 H         1 <0>         0.0479
     45 H10         7.3111    0.0668   -1.0557 H         1 <0>         0.0887
     46 H11         9.7526    0.6054   -0.9385 H         1 <0>         0.1006
     47 H12         8.7394    2.0695   -0.9638 H         1 <0>         0.0618
     48 H13         9.1868    2.6188    2.6200 H         1 <0>         0.1007
     49 H14         8.4015    3.2719    1.1613 H         1 <0>         0.0621
     50 H15         6.7373    2.1086    2.5529 H         1 <0>         0.0888
     51 H16         7.7341    0.6330    2.5444 H         1 <0>         0.0457
     52 H17         3.1965   -4.5687   -0.1686 H         1 <0>         0.4296
     53 H18         0.0500   -3.3233   -1.0531 H         1 <0>         0.1379
     54 H19        -2.0754   -4.5384   -0.8551 H         1 <0>         0.1405
     55 H20        -0.1055   -7.5939    1.4264 H         1 <0>         0.1289
     56 H21         2.0173   -6.3767    1.2140 H         1 <0>         0.1329
     57 H22        -1.7478   -8.4015    1.5018 H         1 <0>         0.4023
     58 H23        -4.5515   -8.1427    1.7224 H         1 <0>         0.0936
     59 H24        -4.1863   -9.0273    0.2217 H         1 <0>         0.0860
     60 H25        -3.9656   -9.4057    4.0028 H         1 <0>         0.1361
     61 H26        -3.5233  -11.6617    4.9287 H         1 <0>         0.1367
     62 H27        -2.8958  -13.5189    3.2431 H         1 <0>         0.1880
@<TRIPOS>BOND
     1    1    6 ar
     2    1    2 ar
     3    1   36 1
     4    2    3 ar
     5    2   37 1
     6    3    4 ar
     7    3   38 1
     8    4   11 1
     9    4    5 ar
    10    5    6 ar
    11    5    7 1
    12    6   39 1
    13    7    8 2
    14    8    9 1
    15    8   20 1
    16    9   10 2
    17    9   11 am
    18   11   12 1
    19   12   13 1
    20   12   40 1
    21   12   41 1
    22   13   14 1
    23   13   42 1
    24   13   43 1
    25   14   19 1
    26   14   15 1
    27   15   16 1
    28   15   44 1
    29   15   45 1
    30   16   17 1
    31   16   46 1
    32   16   47 1
    33   17   18 1
    34   18   19 1
    35   18   48 1
    36   18   49 1
    37   19   50 1
    38   19   51 1
    39   20   21 1
    40   20   52 1
    41   21   26 ar
    42   21   22 ar
    43   22   23 ar
    44   22   53 1
    45   23   24 ar
    46   23   54 1
    47   24   25 ar
    48   24   27 1
    49   25   26 ar
    50   25   55 1
    51   26   56 1
    52   27   28 2
    53   27   29 am
    54   29   30 1
    55   29   57 1
    56   30   31 1
    57   30   58 1
    58   30   59 1
    59   31   35 1
    60   31   32 2
    61   32   33 1
    62   32   60 1
    63   33   34 2
    64   33   61 1
    65   34   35 1
    66   34   62 1
@<TRIPOS>MOLECULE
CHEMBL370173__1
   63    67     0     0     0
SMALL
USER_CHARGES

@<TRIPOS>ATOM
      1 C1          0.0683    1.3394    0.7523 C.ar      1 <0>        -0.1165
      2 C2          1.2282    2.0690    0.5309 C.ar      1 <0>        -0.0769
      3 C3          2.4112    1.4276    0.2329 C.ar      1 <0>        -0.1521
      4 C4          2.4452    0.0390    0.1533 C.ar      1 <0>         0.0881
      5 C5          1.2705   -0.6998    0.3780 C.ar      1 <0>         0.0959
      6 C6          0.0794   -0.0235    0.6792 C.ar      1 <0>        -0.0505
      7 N1          1.2811   -2.0470    0.3064 N.2       1 <0>        -0.4776
      8 C7          2.3810   -2.6986    0.0264 C.2       1 <0>         0.3642
      9 C8          3.6350   -1.9612   -0.2161 C.2       1 <0>         0.5162
     10 O1          4.6621   -2.5601   -0.4765 O.2       1 <0>        -0.5062
     11 N2          3.6285   -0.6122   -0.1448 N.am      1 <0>        -0.5040
     12 C9          4.8570    0.1502   -0.3808 C.3       1 <0>         0.0783
     13 C10         5.5994    0.3437    0.9430 C.3       1 <0>        -0.0291
     14 N3          6.8312    1.1082    0.7063 N.4       1 <0>        -0.3805
     15 C11         7.7416    0.3216   -0.1373 C.3       1 <0>        -0.0510
     16 C12         9.0241    1.1203   -0.3826 C.3       1 <0>         0.0377
     17 O2          9.6236    1.4474    0.8742 O.3       1 <0>        -0.3548
     18 C13         8.7660    2.1940    1.7419 C.3       1 <0>         0.0368
     19 C14         7.4829    1.3973    1.9912 C.3       1 <0>        -0.0432
     20 N4          2.3675   -4.0812   -0.0417 N.pl3     1 <0>        -0.6234
     21 C15         1.1649   -4.7716    0.0721 C.ar      1 <0>         0.1759
     22 C16         0.0107   -4.2574   -0.5124 C.ar      1 <0>        -0.1169
     23 C17        -1.1803   -4.9380   -0.4017 C.ar      1 <0>        -0.0357
     24 C18        -1.2304   -6.1467    0.2986 C.ar      1 <0>        -0.1436
     25 C19        -0.0699   -6.6605    0.8844 C.ar      1 <0>        -0.0626
     26 C20         1.1193   -5.9781    0.7653 C.ar      1 <0>        -0.1465
     27 C21        -2.5059   -6.8786    0.4196 C.2       1 <0>         0.5606
     28 O3         -3.5147   -6.4305   -0.0901 O.2       1 <0>        -0.5307
     29 N5         -2.5526   -8.0440    1.0951 N.am      1 <0>        -0.7241
     30 C22        -3.8190   -8.7707    1.2153 C.3       1 <0>         0.2079
     31 C23        -3.6011  -10.0315    2.0115 C.2       1 <0>        -0.1809
     32 C24        -3.6991  -10.2236    3.3497 C.2       1 <0>        -0.1283
     33 C25        -3.4524  -11.4818    3.8661 C.2       1 <0>        -0.1651
     34 C26        -3.1198  -12.4864    3.0190 C.2       1 <0>        -0.1593
     35 S1         -3.1545  -11.6614    1.4362 S.3       1 <0>         0.0539
     36 H1         -0.8508    1.8548    0.9890 H         1 <0>         0.1413
     37 H2          1.2035    3.1469    0.5923 H         1 <0>         0.1380
     38 H3          3.3097    2.0017    0.0611 H         1 <0>         0.1255
     39 H4         -0.8290   -0.5810    0.8536 H         1 <0>         0.1479
     40 H5          5.4938   -0.3938   -1.0784 H         1 <0>         0.1211
     41 H6          4.6053    1.1236   -0.8019 H         1 <0>         0.1183
     42 H7          4.9625    0.8877    1.6405 H         1 <0>         0.1410
     43 H8          5.8510   -0.6297    1.3641 H         1 <0>         0.1391
     44 H9          7.9864   -0.6139    0.3657 H         1 <0>         0.1434
     45 H10         7.2591    0.1067   -1.0908 H         1 <0>         0.1431
     46 H11         9.7185    0.5218   -0.9723 H         1 <0>         0.1442
     47 H12         8.7846    2.0372   -0.9213 H         1 <0>         0.0830
     48 H13         9.2735    2.3726    2.6899 H         1 <0>         0.1441
     49 H14         8.5176    3.1476    1.2760 H         1 <0>         0.0830
     50 H15         6.8085    1.9809    2.6178 H         1 <0>         0.1447
     51 H16         7.7278    0.4614    2.4934 H         1 <0>         0.1407
     52 H17         3.1965   -4.5687   -0.1686 H         1 <0>         0.4303
     53 H18         0.0500   -3.3233   -1.0531 H         1 <0>         0.1366
     54 H19        -2.0754   -4.5384   -0.8551 H         1 <0>         0.1430
     55 H20        -0.1055   -7.5939    1.4264 H         1 <0>         0.1321
     56 H21         2.0173   -6.3767    1.2140 H         1 <0>         0.1339
     57 H22        -1.7478   -8.4015    1.5018 H         1 <0>         0.4022
     58 H23        -4.5515   -8.1427    1.7224 H         1 <0>         0.0944
     59 H24        -4.1863   -9.0273    0.2217 H         1 <0>         0.0872
     60 H25        -3.9656   -9.4057    4.0028 H         1 <0>         0.1358
     61 H26        -3.5233  -11.6617    4.9287 H         1 <0>         0.1375
     62 H27        -2.8958  -13.5189    3.2431 H         1 <0>         0.1889
     63 H28         6.6054    1.9746    0.2411 H         1 <0>         0.4238
@<TRIPOS>BOND
     1    1    6 ar
     2    1    2 ar
     3    1   36 1
     4    2    3 ar
     5    2   37 1
     6    3    4 ar
     7    3   38 1
     8    4   11 1
     9    4    5 ar
    10    5    6 ar
    11    5    7 1
    12    6   39 1
    13    7    8 2
    14    8    9 1
    15    8   20 1
    16    9   10 2
    17    9   11 am
    18   11   12 1
    19   12   13 1
    20   12   40 1
    21   12   41 1
    22   13   14 1
    23   13   42 1
    24   13   43 1
    25   14   19 1
    26   14   15 1
    27   14   63 1
    28   15   16 1
    29   15   44 1
    30   15   45 1
    31   16   17 1
    32   16   46 1
    33   16   47 1
    34   17   18 1
    35   18   19 1
    36   18   48 1
    37   18   49 1
    38   19   50 1
    39   19   51 1
    40   20   21 1
    41   20   52 1
    42   21   26 ar
    43   21   22 ar
    44   22   23 ar
    45   22   53 1
    46   23   24 ar
    47   23   54 1
    48   24   25 ar
    49   24   27 1
    50   25   26 ar
    51   25   55 1
    52   26   56 1
    53   27   28 2
    54   27   29 am
    55   29   30 1
    56   29   57 1
    57   30   31 1
    58   30   58 1
    59   30   59 1
    60   31   35 1
    61   31   32 2
    62   32   33 1
    63   32   60 1
    64   33   34 2
    65   33   61 1
    66   34   35 1
    67   34   62 1
@<TRIPOS>MOLECULE
CHEMBL133114
   42    44     0     0     0
SMALL
USER_CHARGES

@<TRIPOS>ATOM
      1 C1          0.8698   -0.1077   -0.9817 C.ar      1 <0>        -0.1499
      2 C2          2.0854    0.5459   -0.9619 C.ar      1 <0>        -0.0847
      3 C3          2.5108    1.1947    0.1962 C.ar      1 <0>        -0.1088
      4 C4          1.6937    1.1799    1.3463 C.ar      1 <0>        -0.0629
      5 C5          0.4725    0.5184    1.3130 C.ar      1 <0>        -0.1343
      6 C6          0.0627   -0.1241    0.1493 C.ar      1 <0>         0.0417
      7 O1         -1.1299   -0.7696    0.1184 O.3       1 <0>        -0.2512
      8 C7         -2.2602   -0.0186    0.0308 C.ar      1 <0>         0.1148
      9 C8         -2.1801    1.3640    0.0753 C.ar      1 <0>        -0.1431
     10 C9         -3.3293    2.1269   -0.0143 C.ar      1 <0>        -0.1141
     11 C10        -4.5634    1.5130   -0.1488 C.ar      1 <0>         0.0698
     12 C11        -4.6513    0.1328   -0.1935 C.ar      1 <0>        -0.1222
     13 C12        -3.5005   -0.6379   -0.1098 C.ar      1 <0>         0.1255
     14 N1         -3.5859   -2.0341   -0.1610 N.am      1 <0>        -0.6291
     15 C13        -4.5296   -2.6242   -0.9210 C.2       1 <0>         0.5697
     16 O2         -5.2382   -1.9498   -1.6423 O.2       1 <0>        -0.5062
     17 C14        -4.7033   -4.0946   -0.8772 C.ar      1 <0>         0.1019
     18 C15        -5.6769   -4.6992   -1.6695 C.ar      1 <0>        -0.0535
     19 C16        -5.8275   -6.0758   -1.6177 C.ar      1 <0>        -0.0101
     20 C17        -4.9988   -6.8004   -0.7750 C.ar      1 <0>        -0.0886
     21 C18        -4.0518   -6.1331   -0.0151 C.ar      1 <0>         0.1187
     22 N2         -3.9265   -4.8258   -0.0875 N.ar      1 <0>        -0.4147
     23 N3         -6.8501   -6.7569   -2.4430 N.pl3     1 <0>         0.0295
     24 O3         -7.5659   -6.1115   -3.1729 O.2       1 <0>        -0.1373
     25 O4         -6.9697   -7.9587   -2.3871 O.3       1 <0>        -0.1428
     26 F1         -5.6837    2.2631   -0.2360 F         1 <0>        -0.1419
     27 C19         2.1348    1.8639    2.5798 C.2       1 <0>         0.5605
     28 O5          2.8650    1.2857    3.3717 O.co2     1 <0>        -0.6886
     29 O6          1.7694    3.0081    2.8083 O.co2     1 <0>        -0.6940
     30 C20         3.8092    1.8929    0.2194 C.2       1 <0>         0.5132
     31 O7          4.5581    1.8236   -0.7452 O.co2     1 <0>        -0.7132
     32 O8          4.1373    2.5415    1.2030 O.co2     1 <0>        -0.6357
     33 H1          0.5421   -0.6052   -1.8825 H         1 <0>         0.1134
     34 H2          2.7077    0.5543   -1.8445 H         1 <0>         0.1290
     35 H3         -0.1579    0.5028    2.1898 H         1 <0>         0.1163
     36 H4         -1.2192    1.8458    0.1804 H         1 <0>         0.1573
     37 H5         -3.2646    3.2044    0.0209 H         1 <0>         0.1424
     38 H6         -5.6146   -0.3442   -0.2980 H         1 <0>         0.1479
     39 H7         -2.9658   -2.5770    0.3505 H         1 <0>         0.4288
     40 H8         -6.3056   -4.1034   -2.3146 H         1 <0>         0.1802
     41 H9         -5.0908   -7.8746   -0.7112 H         1 <0>         0.1729
     42 H10        -3.4046   -6.6945    0.6425 H         1 <0>         0.1932
@<TRIPOS>BOND
     1    1    6 ar
     2    1    2 ar
     3    1   33 1
     4    2    3 ar
     5    2   34 1
     6    3    4 ar
     7    3   30 1
     8    4    5 ar
     9    4   27 1
    10    5    6 ar
    11    5   35 1
    12    6    7 1
    13    7    8 1
    14    8   13 ar
    15    8    9 ar
    16    9   10 ar
    17    9   36 1
    18   10   11 ar
    19   10   37 1
    20   11   12 ar
    21   11   26 1
    22   12   13 ar
    23   12   38 1
    24   13   14 1
    25   14   15 am
    26   14   39 1
    27   15   16 2
    28   15   17 1
    29   17   22 ar
    30   17   18 ar
    31   18   19 ar
    32   18   40 1
    33   19   20 ar
    34   19   23 1
    35   20   21 ar
    36   20   41 1
    37   21   22 ar
    38   21   42 1
    39   23   24 2
    40   23   25 1
    41   27   28 2
    42   27   29 1
    43   30   31 2
    44   30   32 1
@<TRIPOS>MOLECULE
CHEMBL193734
   46    49     0     0     0
SMALL
USER_CHARGES

@<TRIPOS>ATOM
      1 C1          0.1177    1.4260    0.9360 C.3       1 <0>         0.0623
      2 N1          0.2628   -0.0227    1.0990 N.am      1 <0>        -0.5050
      3 C2         -0.5993   -0.7260    1.9221 C.ar      1 <0>         0.0955
      4 C3         -1.6134   -0.0602    2.6029 C.ar      1 <0>        -0.1099
      5 C4         -2.4705   -0.7623    3.4218 C.ar      1 <0>        -0.1171
      6 C5         -2.3308   -2.1371    3.5750 C.ar      1 <0>         0.0951
      7 C6         -1.3339   -2.8150    2.9103 C.ar      1 <0>        -0.0963
      8 C7         -0.4529   -2.1161    2.0722 C.ar      1 <0>         0.1119
      9 N2          0.5241   -2.7795    1.4199 N.2       1 <0>        -0.4859
     10 C8          1.3586   -2.1488    0.6334 C.2       1 <0>         0.3695
     11 C9          1.2365   -0.6915    0.4437 C.2       1 <0>         0.5092
     12 O1          2.0053   -0.0985   -0.2904 O.2       1 <0>        -0.5085
     13 N3          2.3532   -2.8511   -0.0255 N.pl3     1 <0>        -0.6255
     14 C10         2.3949   -4.2395    0.0556 C.ar      1 <0>         0.1859
     15 C11         1.2109   -4.9719    0.0449 C.ar      1 <0>        -0.1190
     16 C12         1.2489   -6.3452    0.1254 C.ar      1 <0>        -0.0347
     17 C13         2.4779   -7.0048    0.2177 C.ar      1 <0>        -0.1525
     18 C14         3.6650   -6.2667    0.2277 C.ar      1 <0>        -0.0625
     19 C15         3.6207   -4.8938    0.1416 C.ar      1 <0>        -0.1502
     20 C16         2.5221   -8.4770    0.3047 C.2       1 <0>         0.5635
     21 O2          1.4887   -9.1178    0.2962 O.2       1 <0>        -0.5336
     22 N4          3.7078   -9.1115    0.3935 N.am      1 <0>        -0.7258
     23 C17         3.7516  -10.5733    0.4799 C.3       1 <0>         0.2078
     24 C18         5.1855  -11.0285    0.5694 C.2       1 <0>        -0.1764
     25 C19         5.9497  -11.2309    1.6704 C.2       1 <0>        -0.1305
     26 C20         7.2555  -11.6553    1.5112 C.2       1 <0>        -0.1636
     27 C21         7.7332  -11.8566    0.2588 C.2       1 <0>        -0.1624
     28 S1          6.3159  -11.4485   -0.7471 S.3       1 <0>         0.0523
     29 F1         -3.1785   -2.8121    4.3818 F         1 <0>        -0.1310
     30 H1          0.8812    1.7927    0.2499 H         1 <0>         0.1045
     31 H2         -0.8702    1.6491    0.5331 H         1 <0>         0.0836
     32 H3          0.2342    1.9139    1.9037 H         1 <0>         0.0837
     33 H4         -1.7286    1.0076    2.4897 H         1 <0>         0.1453
     34 H5         -3.2561   -0.2411    3.9487 H         1 <0>         0.1479
     35 H6         -1.2303   -3.8829    3.0341 H         1 <0>         0.1548
     36 H7          3.0209   -2.3753   -0.5438 H         1 <0>         0.4313
     37 H8          0.2617   -4.4617   -0.0264 H         1 <0>         0.1383
     38 H9          0.3300   -6.9127    0.1178 H         1 <0>         0.1412
     39 H10         4.6160   -6.7734    0.2993 H         1 <0>         0.1296
     40 H11         4.5377   -4.3233    0.1449 H         1 <0>         0.1340
     41 H12         4.5321   -8.6003    0.4003 H         1 <0>         0.4024
     42 H13         3.2103  -10.9013    1.3674 H         1 <0>         0.0937
     43 H14         3.2885  -11.0038   -0.4079 H         1 <0>         0.0861
     44 H15         5.5445  -11.0627    2.6573 H         1 <0>         0.1362
     45 H16         7.8858  -11.8237    2.3719 H         1 <0>         0.1367
     46 H17         8.7152  -12.1831   -0.0502 H         1 <0>         0.1880
@<TRIPOS>BOND
     1    1    2 1
     2    1   30 1
     3    1   31 1
     4    1   32 1
     5    2   11 am
     6    2    3 1
     7    3    8 ar
     8    3    4 ar
     9    4    5 ar
    10    4   33 1
    11    5    6 ar
    12    5   34 1
    13    6    7 ar
    14    6   29 1
    15    7    8 ar
    16    7   35 1
    17    8    9 1
    18    9   10 2
    19   10   11 1
    20   10   13 1
    21   11   12 2
    22   13   14 1
    23   13   36 1
    24   14   19 ar
    25   14   15 ar
    26   15   16 ar
    27   15   37 1
    28   16   17 ar
    29   16   38 1
    30   17   18 ar
    31   17   20 1
    32   18   19 ar
    33   18   39 1
    34   19   40 1
    35   20   21 2
    36   20   22 am
    37   22   23 1
    38   22   41 1
    39   23   24 1
    40   23   42 1
    41   23   43 1
    42   24   28 1
    43   24   25 2
    44   25   26 1
    45   25   44 1
    46   26   27 2
    47   26   45 1
    48   27   28 1
    49   27   46 1
@<TRIPOS>MOLECULE
CHEMBL137196
   42    45     0     0     0
SMALL
USER_CHARGES

@<TRIPOS>ATOM
      1 C1         -0.0178    1.4608    0.0101 C.3       1 <0>         0.0663
      2 N1          0.0021   -0.0041    0.0020 N.am      1 <0>        -0.5518
      3 C2         -1.2031   -0.7117    0.0039 C.ar      1 <0>         0.1663
      4 C3         -2.3946   -0.0532   -0.2745 C.ar      1 <0>        -0.1531
      5 C4         -3.5833   -0.7556   -0.2871 C.ar      1 <0>        -0.0834
      6 C5         -3.5891   -2.1133   -0.0240 C.ar      1 <0>        -0.1412
      7 C6         -2.4060   -2.7702    0.2593 C.ar      1 <0>        -0.0793
      8 C7         -1.2145   -2.0714    0.2799 C.ar      1 <0>        -0.1377
      9 C8          0.0693   -2.7829    0.6224 C.3       1 <0>        -0.0882
     10 C9          1.2289   -2.1513   -0.1482 C.3       1 <0>         0.1392
     11 C10         1.1792   -0.6529   -0.0127 C.2       1 <0>         0.5040
     12 O1          2.2121   -0.0251    0.0880 O.2       1 <0>        -0.4933
     13 N2          1.1257   -2.5112   -1.5645 N.am      1 <0>        -0.7183
     14 C11         2.2289   -2.5239   -2.3387 C.2       1 <0>         0.5835
     15 O2          3.3103   -2.2366   -1.8614 O.2       1 <0>        -0.4932
     16 C12         2.1253   -2.8851   -3.7605 C.2       1 <0>         0.0119
     17 C13         3.1619   -2.9388   -4.6366 C.2       1 <0>        -0.0846
     18 C14         2.6407   -3.3256   -5.8960 C.ar      1 <0>        -0.1264
     19 C15         3.2220   -3.5404   -7.1491 C.ar      1 <0>         0.0046
     20 C16         2.4202   -3.9232   -8.2178 C.ar      1 <0>        -0.0577
     21 C17         1.0388   -4.0918   -8.0371 C.ar      1 <0>        -0.0424
     22 C18         0.4674   -3.8837   -6.8177 C.ar      1 <0>        -0.1287
     23 C19         1.2511   -3.4991   -5.7303 C.ar      1 <0>         0.1407
     24 N3          0.9590   -3.2296   -4.4162 N.pl3     1 <0>        -0.5740
     25 H1          0.0772   -3.2721   -4.0141 H         1 <0>         0.4197
     26 C20         3.0047   -4.1456   -9.5060 C.1       1 <0>         0.2555
     27 N4          3.4684   -4.3220  -10.5280 N.1       1 <0>        -0.4175
     28 H2          1.0048    1.8381    0.0023 H         1 <0>         0.0967
     29 H3         -0.5450    1.8219   -0.8730 H         1 <0>         0.0702
     30 H4         -0.5280    1.8123    0.9069 H         1 <0>         0.0724
     31 H5         -2.3909    1.0070   -0.4806 H         1 <0>         0.1303
     32 H6         -4.5098   -0.2440   -0.5023 H         1 <0>         0.1296
     33 H7         -4.5196   -2.6614   -0.0396 H         1 <0>         0.1279
     34 H8         -2.4132   -3.8306    0.4644 H         1 <0>         0.1313
     35 H9          0.2563   -2.6984    1.6929 H         1 <0>         0.1046
     36 H10        -0.0158   -3.8352    0.3516 H         1 <0>         0.1025
     37 H11         2.1733   -2.5216    0.2508 H         1 <0>         0.1342
     38 H12         0.2634   -2.7402   -1.9452 H         1 <0>         0.4014
     39 H13         4.1968   -2.7252   -4.4134 H         1 <0>         0.1636
     40 H14         4.2853   -3.4096   -7.2856 H         1 <0>         0.1403
     41 H15         0.4226   -4.3891   -8.8727 H         1 <0>         0.1393
     42 H16        -0.5971   -4.0167   -6.6929 H         1 <0>         0.1348
@<TRIPOS>BOND
     1    1    2 1
     2    1   28 1
     3    1   29 1
     4    1   30 1
     5    2   11 am
     6    2    3 1
     7    3    8 ar
     8    3    4 ar
     9    4    5 ar
    10    4   31 1
    11    5    6 ar
    12    5   32 1
    13    6    7 ar
    14    6   33 1
    15    7    8 ar
    16    7   34 1
    17    8    9 1
    18    9   10 1
    19    9   35 1
    20    9   36 1
    21   10   11 1
    22   10   13 1
    23   10   37 1
    24   11   12 2
    25   13   14 am
    26   13   38 1
    27   14   15 2
    28   14   16 1
    29   16   24 1
    30   16   17 2
    31   17   18 1
    32   17   39 1
    33   18   23 ar
    34   18   19 ar
    35   19   20 ar
    36   19   40 1
    37   20   21 ar
    38   20   26 1
    39   21   22 ar
    40   21   41 1
    41   22   23 ar
    42   22   42 1
    43   23   24 1
    44   24   25 1
    45   26   27 3
@<TRIPOS>MOLECULE
CHEMBL137196__1
   42    45     0     0     0
SMALL
USER_CHARGES

@<TRIPOS>ATOM
      1 C1         -0.0178    1.4608    0.0101 C.3       1 <0>         0.0663
      2 N1          0.0021   -0.0041    0.0020 N.am      1 <0>        -0.5519
      3 C2         -1.2031   -0.7117    0.0039 C.ar      1 <0>         0.1664
      4 C3         -2.3917   -0.0565    0.3017 C.ar      1 <0>        -0.1531
      5 C4         -3.5803   -0.7591    0.3180 C.ar      1 <0>        -0.0834
      6 C5         -3.5888   -2.1137    0.0393 C.ar      1 <0>        -0.1413
      7 C6         -2.4084   -2.7674   -0.2624 C.ar      1 <0>        -0.0792
      8 C7         -1.2173   -2.0681   -0.2876 C.ar      1 <0>        -0.1378
      9 C8          0.0630   -2.7755   -0.6510 C.3       1 <0>        -0.0884
     10 C9          1.2302   -2.1528    0.1153 C.3       1 <0>         0.1391
     11 C10         1.1792   -0.6529   -0.0127 C.2       1 <0>         0.5040
     12 O1          2.2100   -0.0239   -0.1263 O.2       1 <0>        -0.4932
     13 N2          1.1410   -2.5290    1.5283 N.am      1 <0>        -0.7177
     14 C11         2.2518   -2.5506    2.2913 C.2       1 <0>         0.5836
     15 O2          3.3284   -2.2578    1.8067 O.2       1 <0>        -0.4934
     16 C12         2.1623   -2.9282    3.7099 C.2       1 <0>         0.0119
     17 C13         3.2059   -2.9815    4.5776 C.2       1 <0>        -0.0846
     18 C14         2.6975   -3.3852    5.8370 C.ar      1 <0>        -0.1263
     19 C15         3.2903   -3.6086    7.0831 C.ar      1 <0>         0.0045
     20 C16         2.5001   -4.0103    8.1536 C.ar      1 <0>        -0.0576
     21 C17         1.1190   -4.1891    7.9815 C.ar      1 <0>        -0.0424
     22 C18         0.5363   -3.9727    6.7688 C.ar      1 <0>        -0.1287
     23 C19         1.3083   -3.5692    5.6799 C.ar      1 <0>         0.1407
     24 N3          1.0024   -3.2794    4.3732 N.pl3     1 <0>        -0.5740
     25 H1          0.1167   -3.3170    3.9795 H         1 <0>         0.4197
     26 C20         3.0966   -4.2425    9.4346 C.1       1 <0>         0.2555
     27 N4          3.5698   -4.4267   10.4508 N.1       1 <0>        -0.4175
     28 H2          1.0048    1.8381    0.0023 H         1 <0>         0.0967
     29 H3         -0.5450    1.8219   -0.8730 H         1 <0>         0.0722
     30 H4         -0.5280    1.8123    0.9069 H         1 <0>         0.0704
     31 H5         -2.3859    1.0011    0.5206 H         1 <0>         0.1303
     32 H6         -4.5045   -0.2502    0.5489 H         1 <0>         0.1296
     33 H7         -4.5191   -2.6620    0.0577 H         1 <0>         0.1279
     34 H8         -2.4177   -3.8254   -0.4789 H         1 <0>         0.1313
     35 H9         -0.0195   -3.8310   -0.3915 H         1 <0>         0.1025
     36 H10         0.2394   -2.6787   -1.7223 H         1 <0>         0.1046
     37 H11         2.1706   -2.5184   -0.2972 H         1 <0>         0.1339
     38 H12         0.2825   -2.7625    1.9148 H         1 <0>         0.4014
     39 H13         4.2372   -2.7567    4.3489 H         1 <0>         0.1636
     40 H14         4.3535   -3.4706    7.2129 H         1 <0>         0.1403
     41 H15         0.5119   -4.5018    8.8182 H         1 <0>         0.1393
     42 H16        -0.5277   -4.1145    6.6505 H         1 <0>         0.1348
@<TRIPOS>BOND
     1    1    2 1
     2    1   28 1
     3    1   29 1
     4    1   30 1
     5    2   11 am
     6    2    3 1
     7    3    8 ar
     8    3    4 ar
     9    4    5 ar
    10    4   31 1
    11    5    6 ar
    12    5   32 1
    13    6    7 ar
    14    6   33 1
    15    7    8 ar
    16    7   34 1
    17    8    9 1
    18    9   10 1
    19    9   35 1
    20    9   36 1
    21   10   11 1
    22   10   13 1
    23   10   37 1
    24   11   12 2
    25   13   14 am
    26   13   38 1
    27   14   15 2
    28   14   16 1
    29   16   24 1
    30   16   17 2
    31   17   18 1
    32   17   39 1
    33   18   23 ar
    34   18   19 ar
    35   19   20 ar
    36   19   40 1
    37   20   21 ar
    38   20   26 1
    39   21   22 ar
    40   21   41 1
    41   22   23 ar
    42   22   42 1
    43   23   24 1
    44   24   25 1
    45   26   27 3
@<TRIPOS>MOLECULE
CHEMBL371986
   42    45     0     0     0
SMALL
USER_CHARGES

@<TRIPOS>ATOM
      1 C1          0.2439    1.4286    1.3012 C.3       1 <0>         0.0640
      2 N1          0.2769   -0.0358    1.2775 N.am      1 <0>        -0.5069
      3 C2         -0.7243   -0.7699    1.8877 C.ar      1 <0>         0.1044
      4 C3         -1.7745   -0.1224    2.5305 C.ar      1 <0>        -0.1413
      5 C4         -2.7685   -0.8610    3.1357 C.ar      1 <0>        -0.0846
      6 C5         -2.7300   -2.2482    3.1090 C.ar      1 <0>        -0.1278
      7 C6         -1.7086   -2.9036    2.4842 C.ar      1 <0>        -0.0590
      8 C7         -0.6854   -2.1749    1.8606 C.ar      1 <0>         0.0822
      9 N2          0.3235   -2.8233    1.2424 N.2       1 <0>        -0.4875
     10 C8          1.2890   -2.1633    0.6544 C.2       1 <0>         0.3614
     11 C9          1.2825   -0.6884    0.6547 C.2       1 <0>         0.5090
     12 O1          2.1735   -0.0676    0.1051 O.2       1 <0>        -0.5140
     13 N3          2.3131   -2.8497    0.0268 N.pl3     1 <0>        -0.6251
     14 C10         2.3645   -4.2457    0.0961 C.ar      1 <0>         0.1467
     15 C11         1.1884   -4.9853    0.0919 C.ar      1 <0>        -0.0943
     16 C12         1.2392   -6.3629    0.1604 C.ar      1 <0>        -0.0973
     17 C13         2.4662   -7.0099    0.2335 C.ar      1 <0>         0.1190
     18 C14         3.6422   -6.2706    0.2381 C.ar      1 <0>        -0.1151
     19 C15         3.5918   -4.8932    0.1635 C.ar      1 <0>        -0.1252
     20 N4          2.5177   -8.4070    0.3029 N.am      1 <0>        -0.6531
     21 C16         1.6128   -9.1487   -0.3661 C.2       1 <0>         0.5970
     22 O2          0.7058   -8.6052   -0.9669 O.2       1 <0>        -0.4855
     23 C17         1.7224  -10.6192   -0.3694 C.2       1 <0>         0.0127
     24 C18         0.8863  -11.4855   -1.0040 C.2       1 <0>        -0.1945
     25 C19         1.3442  -12.7902   -0.7547 C.2       1 <0>         0.0766
     26 N5          2.4066  -12.7144   -0.0050 N.2       1 <0>        -0.2893
     27 O3          2.6720  -11.3473    0.2505 O.3       1 <0>        -0.0714
     28 H1          1.1097    1.8202    0.7672 H         1 <0>         0.1026
     29 H2         -0.6690    1.7793    0.8199 H         1 <0>         0.0816
     30 H3          0.2665    1.7759    2.3342 H         1 <0>         0.0815
     31 H4         -1.8108    0.9567    2.5555 H         1 <0>         0.1335
     32 H5         -3.5829   -0.3568    3.6346 H         1 <0>         0.1334
     33 H6         -3.5154   -2.8144    3.5873 H         1 <0>         0.1338
     34 H7         -1.6883   -3.9833    2.4702 H         1 <0>         0.1402
     35 H8          2.9955   -2.3629   -0.4613 H         1 <0>         0.4284
     36 H9          0.2343   -4.4823    0.0355 H         1 <0>         0.1488
     37 H10         0.3250   -6.9378    0.1575 H         1 <0>         0.1425
     38 H11         4.5961   -6.7737    0.2957 H         1 <0>         0.1331
     39 H12         4.5063   -4.3187    0.1622 H         1 <0>         0.1327
     40 H13         3.2046   -8.8413    0.8324 H         1 <0>         0.4193
     41 H14         0.0228  -11.2174   -1.5947 H         1 <0>         0.1756
     42 H15         0.8924  -13.7000   -1.1216 H         1 <0>         0.2118
@<TRIPOS>BOND
     1    1    2 1
     2    1   28 1
     3    1   29 1
     4    1   30 1
     5    2   11 am
     6    2    3 1
     7    3    8 ar
     8    3    4 ar
     9    4    5 ar
    10    4   31 1
    11    5    6 ar
    12    5   32 1
    13    6    7 ar
    14    6   33 1
    15    7    8 ar
    16    7   34 1
    17    8    9 1
    18    9   10 2
    19   10   11 1
    20   10   13 1
    21   11   12 2
    22   13   14 1
    23   13   35 1
    24   14   19 ar
    25   14   15 ar
    26   15   16 ar
    27   15   36 1
    28   16   17 ar
    29   16   37 1
    30   17   18 ar
    31   17   20 1
    32   18   19 ar
    33   18   38 1
    34   19   39 1
    35   20   21 am
    36   20   40 1
    37   21   22 2
    38   21   23 1
    39   23   27 1
    40   23   24 2
    41   24   25 1
    42   24   41 1
    43   25   26 2
    44   25   42 1
    45   26   27 1
@<TRIPOS>MOLECULE
CHEMBL115651
   55    57     0     0     0
SMALL
USER_CHARGES

@<TRIPOS>ATOM
      1 C1          0.1870    1.6359   -0.0411 C.3       1 <0>        -0.1135
      2 C2          0.0448    0.1367    0.0156 C.2       1 <0>         0.2480
      3 C3         -1.1819   -0.4128    0.0214 C.2       1 <0>        -0.3075
      4 C4         -1.3776   -1.9013    0.0673 C.3       1 <0>         0.0777
      5 C5         -0.1139   -2.5929    0.4936 C.2       1 <0>        -0.2172
      6 C6          1.0786   -1.9560    0.4702 C.2       1 <0>         0.0660
      7 N1          1.1650   -0.6454    0.0548 N.pl3     1 <0>        -0.4882
      8 C7          2.4599   -0.0865   -0.3415 C.3       1 <0>         0.1409
      9 C8          2.6082   -0.1748   -1.8386 C.ar      1 <0>        -0.0953
     10 C9          3.1684   -1.3010   -2.4122 C.ar      1 <0>        -0.0677
     11 C10         3.3047   -1.3826   -3.7852 C.ar      1 <0>        -0.1137
     12 C11         2.8803   -0.3369   -4.5855 C.ar      1 <0>        -0.0317
     13 C12         2.3198    0.7900   -4.0109 C.ar      1 <0>        -0.1239
     14 C13         2.1788    0.8680   -2.6381 C.ar      1 <0>        -0.0966
     15 Cl1         3.0517   -0.4383   -6.3100 Cl        1 <0>        -0.0912
     16 C14         2.3057   -2.6771    0.8908 C.2       1 <0>         0.5826
     17 O1          2.9577   -3.3040    0.0694 O.co2     1 <0>        -0.6877
     18 O2          2.6639   -2.6439    2.0584 O.co2     1 <0>        -0.6828
     19 C15        -0.1748   -3.9848    0.9439 C.2       1 <0>         0.5231
     20 O3          0.8254   -4.5259    1.3973 O.co2     1 <0>        -0.6566
     21 O4         -1.2261   -4.6075    0.8671 O.co2     1 <0>        -0.7038
     22 C16        -1.7738   -2.3917   -1.3015 C.ar      1 <0>        -0.0132
     23 C17        -0.9262   -2.2003   -2.3765 C.ar      1 <0>        -0.0921
     24 C18        -1.2894   -2.6501   -3.6320 C.ar      1 <0>        -0.1276
     25 C19        -2.5006   -3.2917   -3.8134 C.ar      1 <0>        -0.1322
     26 C20        -3.3488   -3.4837   -2.7394 C.ar      1 <0>        -0.1289
     27 C21        -2.9832   -3.0387   -1.4813 C.ar      1 <0>         0.0026
     28 Cl2        -4.0453   -3.2854   -0.1304 Cl        1 <0>        -0.0623
     29 C22        -2.3161    0.4312   -0.0161 C.2       1 <0>         0.5274
     30 O5         -2.1745    1.6392   -0.0531 O.2       1 <0>        -0.5589
     31 O6         -3.5553   -0.1031   -0.0109 O.3       1 <0>        -0.3303
     32 C23        -4.6550    0.8085   -0.0502 C.3       1 <0>         0.0816
     33 C24        -5.0338    1.0881   -1.5060 C.3       1 <0>        -0.1648
     34 C25        -5.8519    0.1955    0.6795 C.3       1 <0>        -0.1465
     35 H1          1.2417    1.9035    0.0223 H         1 <0>         0.0563
     36 H2         -0.2256    2.0047   -0.9801 H         1 <0>         0.0876
     37 H3         -0.3523    2.0838    0.7936 H         1 <0>         0.0951
     38 H4         -2.1718   -2.1369    0.7757 H         1 <0>         0.0894
     39 H5          2.5153    0.9571   -0.0318 H         1 <0>         0.0877
     40 H6          3.2607   -0.6505    0.1368 H         1 <0>         0.1082
     41 H7          3.5000   -2.1171   -1.7873 H         1 <0>         0.1650
     42 H8          3.7427   -2.2623   -4.2331 H         1 <0>         0.1309
     43 H9          1.9886    1.6067   -4.6351 H         1 <0>         0.1259
     44 H10         1.7369    1.7455   -2.1897 H         1 <0>         0.1276
     45 H11         0.0199   -1.6988   -2.2355 H         1 <0>         0.1171
     46 H12        -0.6270   -2.4999   -4.4717 H         1 <0>         0.1122
     47 H13        -2.7840   -3.6426   -4.7947 H         1 <0>         0.1148
     48 H14        -4.2950   -3.9846   -2.8813 H         1 <0>         0.1182
     49 H15        -4.3713    1.7413    0.4370 H         1 <0>         0.0740
     50 H16        -4.1811    1.5248   -2.0259 H         1 <0>         0.0579
     51 H17        -5.3176    0.1552   -1.9932 H         1 <0>         0.0627
     52 H18        -5.8727    1.7834   -1.5360 H         1 <0>         0.0604
     53 H19        -5.5820   -0.0037    1.7166 H         1 <0>         0.0616
     54 H20        -6.6908    0.8909    0.6495 H         1 <0>         0.0649
     55 H21        -6.1357   -0.7374    0.1923 H         1 <0>         0.0665
@<TRIPOS>BOND
     1    1    2 1
     2    1   35 1
     3    1   36 1
     4    1   37 1
     5    2    7 1
     6    2    3 2
     7    3    4 1
     8    3   29 1
     9    4    5 1
    10    4   22 1
    11    4   38 1
    12    5    6 2
    13    5   19 1
    14    6    7 1
    15    6   16 1
    16    7    8 1
    17    8    9 1
    18    8   39 1
    19    8   40 1
    20    9   14 ar
    21    9   10 ar
    22   10   11 ar
    23   10   41 1
    24   11   12 ar
    25   11   42 1
    26   12   13 ar
    27   12   15 1
    28   13   14 ar
    29   13   43 1
    30   14   44 1
    31   16   17 2
    32   16   18 1
    33   19   20 2
    34   19   21 1
    35   22   27 ar
    36   22   23 ar
    37   23   24 ar
    38   23   45 1
    39   24   25 ar
    40   24   46 1
    41   25   26 ar
    42   25   47 1
    43   26   27 ar
    44   26   48 1
    45   27   28 1
    46   29   30 2
    47   29   31 1
    48   31   32 1
    49   32   33 1
    50   32   34 1
    51   32   49 1
    52   33   50 1
    53   33   51 1
    54   33   52 1
    55   34   53 1
    56   34   54 1
    57   34   55 1
@<TRIPOS>MOLECULE
CHEMBL115651__1
   55    57     0     0     0
SMALL
USER_CHARGES

@<TRIPOS>ATOM
      1 C1          0.0570    1.4984    0.0608 C.3       1 <0>        -0.1140
      2 C2          0.0401   -0.0080    0.0216 C.2       1 <0>         0.2471
      3 C3         -1.1296   -0.6607    0.1344 C.2       1 <0>        -0.3072
      4 C4         -1.1995   -2.1609    0.1101 C.3       1 <0>         0.0763
      5 C5          0.0727   -2.7459   -0.4341 C.2       1 <0>        -0.2173
      6 C6          1.2025   -2.0088   -0.5262 C.2       1 <0>         0.0658
      7 N1          1.2136   -0.6913   -0.1337 N.pl3     1 <0>        -0.4863
      8 C7          2.4895   -0.0189    0.1235 C.3       1 <0>         0.1401
      9 C8          2.7946   -0.0676    1.5985 C.ar      1 <0>        -0.0957
     10 C9          2.3519    0.9447    2.4294 C.ar      1 <0>        -0.0968
     11 C10         2.6313    0.9007    3.7823 C.ar      1 <0>        -0.1231
     12 C11         3.3542   -0.1568    4.3049 C.ar      1 <0>        -0.0318
     13 C12         3.7970   -1.1697    3.4729 C.ar      1 <0>        -0.1130
     14 C13         3.5121   -1.1274    2.1211 C.ar      1 <0>        -0.0672
     15 Cl1         3.7061   -0.2126    6.0040 Cl        1 <0>        -0.0909
     16 C14         2.4416   -2.6263   -1.0612 C.2       1 <0>         0.5812
     17 O1          2.7232   -2.5049   -2.2439 O.co2     1 <0>        -0.6949
     18 O2          3.1800   -3.2560   -0.3189 O.co2     1 <0>        -0.6747
     19 C15         0.0897   -4.1426   -0.8731 C.2       1 <0>         0.5230
     20 O3          1.1409   -4.6599   -1.2281 O.co2     1 <0>        -0.6554
     21 O4         -0.9473   -4.7930   -0.8852 O.co2     1 <0>        -0.7053
     22 C16        -1.4196   -2.6697    1.5115 C.ar      1 <0>        -0.0166
     23 C17        -0.4988   -2.3858    2.5026 C.ar      1 <0>        -0.0913
     24 C18        -0.7005   -2.8524    3.7879 C.ar      1 <0>        -0.1270
     25 C19        -1.8233   -3.6033    4.0831 C.ar      1 <0>        -0.1322
     26 C20        -2.7445   -3.8878    3.0931 C.ar      1 <0>        -0.1282
     27 C21        -2.5460   -3.4161    1.8075 C.ar      1 <0>        -0.0022
     28 Cl2        -3.7062   -3.7675    0.5648 Cl        1 <0>        -0.0600
     29 C22        -2.3235    0.0833    0.2799 C.2       1 <0>         0.5274
     30 O5         -2.2837    1.2993    0.3018 O.2       1 <0>        -0.5590
     31 O6         -3.5067   -0.5553    0.3945 O.3       1 <0>        -0.3301
     32 C23        -4.6722    0.2590    0.5384 C.3       1 <0>         0.0817
     33 C24        -5.2436    0.5805   -0.8439 C.3       1 <0>        -0.1670
     34 C25        -5.7206   -0.4921    1.3616 C.3       1 <0>        -0.1451
     35 H1          1.0880    1.8510    0.0333 H         1 <0>         0.0562
     36 H2         -0.4841    1.8903   -0.8004 H         1 <0>         0.0893
     37 H3         -0.4207    1.8434    0.9778 H         1 <0>         0.0938
     38 H4         -2.0344   -2.4708   -0.5184 H         1 <0>         0.0925
     39 H5          3.2832   -0.5224   -0.4284 H         1 <0>         0.1088
     40 H6          2.4245    1.0199   -0.2000 H         1 <0>         0.0881
     41 H7          1.7879    1.7704    2.0212 H         1 <0>         0.1284
     42 H8          2.2858    1.6918    4.4312 H         1 <0>         0.1263
     43 H9          4.3616   -1.9953    3.8803 H         1 <0>         0.1312
     44 H10         3.8535   -1.9204    1.4723 H         1 <0>         0.1619
     45 H11         0.3786   -1.7996    2.2725 H         1 <0>         0.1174
     46 H12         0.0194   -2.6307    4.5619 H         1 <0>         0.1127
     47 H13        -1.9802   -3.9679    5.0876 H         1 <0>         0.1153
     48 H14        -3.6214   -4.4746    3.3238 H         1 <0>         0.1188
     49 H15        -4.4071    1.1861    1.0466 H         1 <0>         0.0737
     50 H16        -4.4967    1.1156   -1.4304 H         1 <0>         0.0592
     51 H17        -5.5087   -0.3466   -1.3522 H         1 <0>         0.0632
     52 H18        -6.1326    1.2016   -0.7341 H         1 <0>         0.0609
     53 H19        -5.3135   -0.7212    2.3464 H         1 <0>         0.0609
     54 H20        -6.6096    0.1290    1.4714 H         1 <0>         0.0644
     55 H21        -5.9857   -1.4192    0.8534 H         1 <0>         0.0665
@<TRIPOS>BOND
     1    1    2 1
     2    1   35 1
     3    1   36 1
     4    1   37 1
     5    2    7 1
     6    2    3 2
     7    3    4 1
     8    3   29 1
     9    4    5 1
    10    4   22 1
    11    4   38 1
    12    5    6 2
    13    5   19 1
    14    6    7 1
    15    6   16 1
    16    7    8 1
    17    8    9 1
    18    8   39 1
    19    8   40 1
    20    9   14 ar
    21    9   10 ar
    22   10   11 ar
    23   10   41 1
    24   11   12 ar
    25   11   42 1
    26   12   13 ar
    27   12   15 1
    28   13   14 ar
    29   13   43 1
    30   14   44 1
    31   16   17 2
    32   16   18 1
    33   19   20 2
    34   19   21 1
    35   22   27 ar
    36   22   23 ar
    37   23   24 ar
    38   23   45 1
    39   24   25 ar
    40   24   46 1
    41   25   26 ar
    42   25   47 1
    43   26   27 ar
    44   26   48 1
    45   27   28 1
    46   29   30 2
    47   29   31 1
    48   31   32 1
    49   32   33 1
    50   32   34 1
    51   32   49 1
    52   33   50 1
    53   33   51 1
    54   33   52 1
    55   34   53 1
    56   34   54 1
    57   34   55 1
@<TRIPOS>MOLECULE
CHEMBL130055
   40    42     0     0     0
SMALL
USER_CHARGES

@<TRIPOS>ATOM
      1 C1          0.8695   -0.1075   -0.9819 C.ar      1 <0>        -0.1502
      2 C2          2.0849    0.5465   -0.9627 C.ar      1 <0>        -0.0848
      3 C3          2.5105    1.1956    0.1952 C.ar      1 <0>        -0.1098
      4 C4          1.6938    1.1807    1.3455 C.ar      1 <0>        -0.0631
      5 C5          0.4728    0.5189    1.3128 C.ar      1 <0>        -0.1345
      6 C6          0.0629   -0.1240    0.1493 C.ar      1 <0>         0.0433
      7 O1         -1.1298   -0.7695    0.1188 O.3       1 <0>        -0.2509
      8 C7         -2.2601   -0.0185    0.0316 C.ar      1 <0>         0.1127
      9 C8         -2.1800    1.3641    0.0761 C.ar      1 <0>        -0.1435
     10 C9         -3.3293    2.1270   -0.0121 C.ar      1 <0>        -0.1166
     11 C10        -4.5636    1.5130   -0.1456 C.ar      1 <0>         0.0688
     12 C11        -4.6513    0.1328   -0.1913 C.ar      1 <0>        -0.1232
     13 C12        -3.5005   -0.6378   -0.1085 C.ar      1 <0>         0.1295
     14 N1         -3.5858   -2.0340   -0.1602 N.am      1 <0>        -0.6330
     15 C13        -4.5300   -2.6238   -0.9199 C.2       1 <0>         0.5704
     16 O2         -5.2390   -1.9492   -1.6405 O.2       1 <0>        -0.5140
     17 C14        -4.7035   -4.0943   -0.8766 C.ar      1 <0>         0.1018
     18 C15        -5.6773   -4.6982   -1.6684 C.ar      1 <0>        -0.1041
     19 C16        -5.8274   -6.0765   -1.6172 C.ar      1 <0>        -0.0007
     20 C17        -4.9966   -6.8013   -0.7744 C.ar      1 <0>        -0.1433
     21 C18        -4.0500   -6.1334   -0.0156 C.ar      1 <0>         0.1192
     22 N2         -3.9260   -4.8258   -0.0876 N.ar      1 <0>        -0.4490
     23 Cl1        -7.0270   -6.8757   -2.5845 Cl        1 <0>        -0.0454
     24 F1         -5.6840    2.2631   -0.2310 F         1 <0>        -0.1430
     25 C19         2.1351    1.8651    2.5788 C.2       1 <0>         0.5607
     26 O3          2.8658    1.2872    3.3705 O.co2     1 <0>        -0.6890
     27 O4          1.7694    3.0091    2.8073 O.co2     1 <0>        -0.6944
     28 C20         3.8087    1.8943    0.2177 C.2       1 <0>         0.5135
     29 O5          4.5573    1.8250   -0.7470 O.co2     1 <0>        -0.7136
     30 O6          4.1370    2.5431    1.2012 O.co2     1 <0>        -0.6363
     31 H1          0.5417   -0.6052   -1.8826 H         1 <0>         0.1136
     32 H2          2.7069    0.5550   -1.8455 H         1 <0>         0.1286
     33 H3         -0.1572    0.5031    2.1898 H         1 <0>         0.1162
     34 H4         -1.2190    1.8459    0.1801 H         1 <0>         0.1564
     35 H5         -3.2647    3.2044    0.0235 H         1 <0>         0.1413
     36 H6         -5.6147   -0.3442   -0.2951 H         1 <0>         0.1477
     37 H7         -2.9653   -2.5771    0.3507 H         1 <0>         0.4285
     38 H8         -6.3066   -4.1022   -2.3127 H         1 <0>         0.1608
     39 H9         -5.0876   -7.8756   -0.7107 H         1 <0>         0.1524
     40 H10        -3.4019   -6.6944    0.6414 H         1 <0>         0.1770
@<TRIPOS>BOND
     1    1    6 ar
     2    1    2 ar
     3    1   31 1
     4    2    3 ar
     5    2   32 1
     6    3    4 ar
     7    3   28 1
     8    4    5 ar
     9    4   25 1
    10    5    6 ar
    11    5   33 1
    12    6    7 1
    13    7    8 1
    14    8   13 ar
    15    8    9 ar
    16    9   10 ar
    17    9   34 1
    18   10   11 ar
    19   10   35 1
    20   11   12 ar
    21   11   24 1
    22   12   13 ar
    23   12   36 1
    24   13   14 1
    25   14   15 am
    26   14   37 1
    27   15   16 2
    28   15   17 1
    29   17   22 ar
    30   17   18 ar
    31   18   19 ar
    32   18   38 1
    33   19   20 ar
    34   19   23 1
    35   20   21 ar
    36   20   39 1
    37   21   22 ar
    38   21   40 1
    39   25   26 2
    40   25   27 1
    41   28   29 2
    42   28   30 1
@<TRIPOS>MOLECULE
CHEMBL425918
   42    45     0     0     0
SMALL
USER_CHARGES

@<TRIPOS>ATOM
      1 C1          0.2439    1.4286    1.3011 C.3       1 <0>         0.0641
      2 N1          0.2769   -0.0358    1.2775 N.am      1 <0>        -0.5069
      3 C2         -0.7243   -0.7699    1.8876 C.ar      1 <0>         0.1043
      4 C3         -1.7745   -0.1223    2.5304 C.ar      1 <0>        -0.1412
      5 C4         -2.7685   -0.8610    3.1356 C.ar      1 <0>        -0.0848
      6 C5         -2.7297   -2.2482    3.1092 C.ar      1 <0>        -0.1277
      7 C6         -1.7086   -2.9035    2.4842 C.ar      1 <0>        -0.0591
      8 C7         -0.6854   -2.1748    1.8605 C.ar      1 <0>         0.0824
      9 N2          0.3235   -2.8233    1.2424 N.2       1 <0>        -0.4877
     10 C8          1.2890   -2.1633    0.6543 C.2       1 <0>         0.3615
     11 C9          1.2825   -0.6884    0.6547 C.2       1 <0>         0.5089
     12 O1          2.1736   -0.0675    0.1051 O.2       1 <0>        -0.5141
     13 N3          2.3131   -2.8497    0.0268 N.pl3     1 <0>        -0.6249
     14 C10         2.3645   -4.2457    0.0961 C.ar      1 <0>         0.1460
     15 C11         1.1884   -4.9853    0.0919 C.ar      1 <0>        -0.0939
     16 C12         1.2393   -6.3629    0.1603 C.ar      1 <0>        -0.0975
     17 C13         2.4662   -7.0098    0.2339 C.ar      1 <0>         0.1199
     18 C14         3.6422   -6.2706    0.2381 C.ar      1 <0>        -0.1159
     19 C15         3.5918   -4.8932    0.1635 C.ar      1 <0>        -0.1249
     20 N4          2.5176   -8.4071    0.3043 N.am      1 <0>        -0.6526
     21 C16         1.6127   -9.1492   -0.3642 C.2       1 <0>         0.5945
     22 O2          0.7065   -8.6065   -0.9649 O.2       1 <0>        -0.4891
     23 C17         1.7229  -10.6280   -0.3666 C.2       1 <0>         0.0675
     24 C18         0.8524  -11.5283   -1.0265 C.2       1 <0>        -0.2454
     25 C19         1.2877  -12.7788   -0.7882 C.2       1 <0>         0.0539
     26 O3          2.3819  -12.7026   -0.0157 O.3       1 <0>        -0.0565
     27 N5          2.6474  -11.3349    0.2375 N.2       1 <0>        -0.2872
     28 H1          1.1097    1.8202    0.7671 H         1 <0>         0.1026
     29 H2         -0.6690    1.7794    0.8198 H         1 <0>         0.0816
     30 H3          0.2665    1.7759    2.3341 H         1 <0>         0.0814
     31 H4         -1.8108    0.9568    2.5554 H         1 <0>         0.1335
     32 H5         -3.5831   -0.3568    3.6342 H         1 <0>         0.1334
     33 H6         -3.5148   -2.8144    3.5882 H         1 <0>         0.1338
     34 H7         -1.6887   -3.9832    2.4695 H         1 <0>         0.1401
     35 H8          2.9955   -2.3629   -0.4613 H         1 <0>         0.4283
     36 H9          0.2344   -4.4822    0.0354 H         1 <0>         0.1489
     37 H10         0.3250   -6.9378    0.1571 H         1 <0>         0.1425
     38 H11         4.5961   -6.7737    0.2957 H         1 <0>         0.1325
     39 H12         4.5063   -4.3187    0.1619 H         1 <0>         0.1327
     40 H13         3.2045   -8.8411    0.8341 H         1 <0>         0.4185
     41 H14        -0.0105  -11.2586   -1.6173 H         1 <0>         0.1724
     42 H15         0.8344  -13.6876   -1.1556 H         1 <0>         0.2242
@<TRIPOS>BOND
     1    1    2 1
     2    1   28 1
     3    1   29 1
     4    1   30 1
     5    2   11 am
     6    2    3 1
     7    3    8 ar
     8    3    4 ar
     9    4    5 ar
    10    4   31 1
    11    5    6 ar
    12    5   32 1
    13    6    7 ar
    14    6   33 1
    15    7    8 ar
    16    7   34 1
    17    8    9 1
    18    9   10 2
    19   10   11 1
    20   10   13 1
    21   11   12 2
    22   13   14 1
    23   13   35 1
    24   14   19 ar
    25   14   15 ar
    26   15   16 ar
    27   15   36 1
    28   16   17 ar
    29   16   37 1
    30   17   18 ar
    31   17   20 1
    32   18   19 ar
    33   18   38 1
    34   19   39 1
    35   20   21 am
    36   20   40 1
    37   21   22 2
    38   21   23 1
    39   23   27 2
    40   23   24 1
    41   24   25 2
    42   24   41 1
    43   25   26 1
    44   25   42 1
    45   26   27 1
@<TRIPOS>MOLECULE
CHEMBL323707
   41    42     0     0     0
SMALL
USER_CHARGES

@<TRIPOS>ATOM
      1 C1         -0.1216    1.5004   -0.0185 C.3       1 <0>        -0.0730
      2 C2         -0.0478   -0.0048   -0.0116 C.2       1 <0>         0.2100
      3 N1         -0.1126   -0.6502   -1.1529 N.2       1 <0>        -0.5564
      4 C3         -0.0597   -1.9717   -1.2922 C.2       1 <0>         0.0365
      5 C4          0.0737   -2.8203   -0.2055 C.2       1 <0>        -0.1745
      6 C5          0.1588   -2.1851    1.1705 C.3       1 <0>         0.1060
      7 C6          0.0929   -0.6689    1.2061 C.2       1 <0>        -0.4212
      8 C7          0.1652    0.0245    2.3972 C.2       1 <0>         0.4263
      9 O1          0.1672   -0.6440    3.5668 O.3       1 <0>        -0.6873
     10 O2          0.2340    1.3699    2.3903 O.3       1 <0>        -0.3338
     11 C8          0.3066    2.0223    3.6596 C.3       1 <0>         0.0765
     12 C9          1.7725    2.1814    4.0680 C.3       1 <0>        -0.1584
     13 C10        -0.3482    3.4016    3.5623 C.3       1 <0>        -0.1412
     14 C11         1.4575   -2.6104    1.8057 C.ar      1 <0>         0.0149
     15 C12         2.6594   -2.2931    1.2009 C.ar      1 <0>        -0.0710
     16 C13         3.8506   -2.6831    1.7834 C.ar      1 <0>        -0.1327
     17 C14         3.8410   -3.3908    2.9711 C.ar      1 <0>        -0.1477
     18 C15         2.6401   -3.7087    3.5766 C.ar      1 <0>        -0.1346
     19 C16         1.4474   -3.3135    2.9969 C.ar      1 <0>         0.0032
     20 Cl1        -0.0613   -3.7067    3.7604 Cl        1 <0>        -0.0836
     21 C17         0.1276   -4.2174   -0.3707 C.2       1 <0>         0.5372
     22 O3          1.3060   -4.8306   -0.4787 O.co2     1 <0>        -0.7416
     23 O4         -0.9996   -4.9267   -0.4191 O.co2     1 <0>        -0.7378
     24 C18        -0.1468   -2.5561   -2.6557 C.2       1 <0>         0.5331
     25 O5         -0.2070   -3.7678   -2.7981 O.co2     1 <0>        -0.6597
     26 O6         -0.1581   -1.8247   -3.6340 O.co2     1 <0>        -0.7201
     27 H1          0.7826    1.9105    0.4312 H         1 <0>         0.0591
     28 H2         -0.2098    1.8552   -1.0453 H         1 <0>         0.0441
     29 H3         -0.9910    1.8242    0.5537 H         1 <0>         0.0513
     30 H4         -0.6561   -2.5786    1.7781 H         1 <0>         0.0496
     31 H5         -0.2157    1.4240    4.4061 H         1 <0>         0.0730
     32 H6          1.8280    2.6790    5.0362 H         1 <0>         0.0453
     33 H7          2.2391    1.1987    4.1374 H         1 <0>         0.0628
     34 H8          2.2948    2.7797    3.3215 H         1 <0>         0.0493
     35 H9         -1.3926    3.2883    3.2713 H         1 <0>         0.0554
     36 H10        -0.2928    3.8993    4.5304 H         1 <0>         0.0532
     37 H11         0.1741    4.0000    2.8158 H         1 <0>         0.0553
     38 H12         2.6675   -1.7406    0.2730 H         1 <0>         0.1150
     39 H13         4.7894   -2.4352    1.3103 H         1 <0>         0.1052
     40 H14         4.7721   -3.6956    3.4255 H         1 <0>         0.1049
     41 H15         2.6327   -4.2618    4.5042 H         1 <0>         0.1075
@<TRIPOS>BOND
     1    1    2 1
     2    1   27 1
     3    1   28 1
     4    1   29 1
     5    2    7 1
     6    2    3 2
     7    3    4 1
     8    4    5 2
     9    4   24 1
    10    5    6 1
    11    5   21 1
    12    6    7 1
    13    6   14 1
    14    6   30 1
    15    7    8 2
    16    8    9 1
    17    8   10 1
    18   10   11 1
    19   11   12 1
    20   11   13 1
    21   11   31 1
    22   12   32 1
    23   12   33 1
    24   12   34 1
    25   13   35 1
    26   13   36 1
    27   13   37 1
    28   14   19 ar
    29   14   15 ar
    30   15   16 ar
    31   15   38 1
    32   16   17 ar
    33   16   39 1
    34   17   18 ar
    35   17   40 1
    36   18   19 ar
    37   18   41 1
    38   19   20 1
    39   21   22 2
    40   21   23 1
    41   24   25 2
    42   24   26 1
@<TRIPOS>MOLECULE
CHEMBL323707__1
   41    42     0     0     0
SMALL
USER_CHARGES

@<TRIPOS>ATOM
      1 C1         -0.0339    1.5016    0.0446 C.3       1 <0>        -0.0726
      2 C2         -0.0060   -0.0049    0.0187 C.2       1 <0>         0.2098
      3 N1         -0.0811   -0.6229   -1.1370 N.2       1 <0>        -0.5560
      4 C3         -0.0672   -1.9421   -1.3051 C.2       1 <0>         0.0363
      5 C4          0.0314   -2.8180   -0.2365 C.2       1 <0>        -0.1740
      6 C5          0.1247   -2.2158    1.1538 C.3       1 <0>         0.1061
      7 C6          0.1046   -0.6995    1.2225 C.2       1 <0>        -0.4208
      8 C7          0.1883   -0.0349    2.4291 C.2       1 <0>         0.4254
      9 O1          0.2038   -0.7314    3.5821 O.3       1 <0>        -0.6873
     10 O2          0.2546    1.3104    2.4539 O.3       1 <0>        -0.3338
     11 C8          0.3396    1.9322    3.7377 C.3       1 <0>         0.0765
     12 C9          1.8094    2.0843    4.1345 C.3       1 <0>        -0.1588
     13 C10        -0.3187    3.3121    3.6806 C.3       1 <0>        -0.1412
     14 C11        -1.0248   -2.7435    1.9732 C.ar      1 <0>         0.0161
     15 C12        -2.3261   -2.5105    1.5692 C.ar      1 <0>        -0.0726
     16 C13        -3.3805   -2.9944    2.3206 C.ar      1 <0>        -0.1328
     17 C14        -3.1344   -3.7118    3.4766 C.ar      1 <0>        -0.1480
     18 C15        -1.8339   -3.9454    3.8815 C.ar      1 <0>        -0.1346
     19 C16        -0.7779   -3.4661    3.1267 C.ar      1 <0>         0.0073
     20 Cl1         0.8561   -3.7648    3.6311 Cl        1 <0>        -0.0858
     21 C17         0.0443   -4.2121   -0.4321 C.2       1 <0>         0.5373
     22 O3          1.2044   -4.8600   -0.5339 O.co2     1 <0>        -0.7518
     23 O4         -1.1037   -4.8839   -0.5156 O.co2     1 <0>        -0.7278
     24 C18        -0.1609   -2.4935   -2.6818 C.2       1 <0>         0.5330
     25 O5         -0.2609   -3.6992   -2.8513 O.co2     1 <0>        -0.6595
     26 O6         -0.1380   -1.7412   -3.6440 O.co2     1 <0>        -0.7202
     27 H1          0.8869    1.8744    0.4932 H         1 <0>         0.0575
     28 H2         -0.1215    1.8809   -0.9735 H         1 <0>         0.0440
     29 H3         -0.8873    1.8391    0.6327 H         1 <0>         0.0527
     30 H4          1.0505   -2.5621    1.6133 H         1 <0>         0.0488
     31 H5         -0.1738    1.3150    4.4750 H         1 <0>         0.0732
     32 H6          1.8742    2.5586    5.1137 H         1 <0>         0.0454
     33 H7          2.2784    1.1012    4.1752 H         1 <0>         0.0627
     34 H8          2.3227    2.7015    3.3971 H         1 <0>         0.0494
     35 H9         -1.3658    3.2038    3.3980 H         1 <0>         0.0554
     36 H10        -0.2539    3.7864    4.6599 H         1 <0>         0.0532
     37 H11         0.1946    3.9293    2.9433 H         1 <0>         0.0553
     38 H12        -2.5190   -1.9499    0.6665 H         1 <0>         0.1151
     39 H13        -4.3970   -2.8118    2.0047 H         1 <0>         0.1051
     40 H14        -3.9586   -4.0893    4.0635 H         1 <0>         0.1048
     41 H15        -1.6418   -4.5055    4.7847 H         1 <0>         0.1073
@<TRIPOS>BOND
     1    1    2 1
     2    1   27 1
     3    1   28 1
     4    1   29 1
     5    2    7 1
     6    2    3 2
     7    3    4 1
     8    4    5 2
     9    4   24 1
    10    5    6 1
    11    5   21 1
    12    6    7 1
    13    6   14 1
    14    6   30 1
    15    7    8 2
    16    8    9 1
    17    8   10 1
    18   10   11 1
    19   11   12 1
    20   11   13 1
    21   11   31 1
    22   12   32 1
    23   12   33 1
    24   12   34 1
    25   13   35 1
    26   13   36 1
    27   13   37 1
    28   14   19 ar
    29   14   15 ar
    30   15   16 ar
    31   15   38 1
    32   16   17 ar
    33   16   39 1
    34   17   18 ar
    35   17   40 1
    36   18   19 ar
    37   18   41 1
    38   19   20 1
    39   21   22 2
    40   21   23 1
    41   24   25 2
    42   24   26 1
@<TRIPOS>MOLECULE
CHEMBL114950
   48    49     0     0     0
SMALL
USER_CHARGES

@<TRIPOS>ATOM
      1 C1         -0.4695   -0.9946   -0.8665 C.3       1 <0>        -0.1754
      2 C2          0.0881    0.1430   -0.0088 C.3       1 <0>         0.1044
      3 N1          0.7466   -0.4153    1.1748 N.pl3     1 <0>        -0.4905
      4 C3          2.0683   -0.7590    1.1205 C.2       1 <0>         0.2483
      5 C4          2.7832   -0.9341    2.2453 C.2       1 <0>        -0.3155
      6 C5          2.1699   -0.7531    3.6043 C.3       1 <0>         0.0787
      7 C6          0.6700   -0.7609    3.5183 C.2       1 <0>        -0.2218
      8 C7          0.0338   -0.5868    2.3394 C.2       1 <0>         0.0668
      9 C8         -1.4499   -0.5856    2.3004 C.2       1 <0>         0.5839
     10 O1         -2.0660    0.4460    2.5214 O.co2     1 <0>        -0.6884
     11 O2         -2.0551   -1.6163    2.0471 O.co2     1 <0>        -0.6871
     12 C9         -0.1173   -0.9557    4.7373 C.2       1 <0>         0.5236
     13 O3         -1.3335   -1.0774    4.6676 O.co2     1 <0>        -0.6572
     14 O4          0.4406   -0.9968    5.8263 O.co2     1 <0>        -0.7049
     15 C10         2.6265    0.5612    4.1833 C.ar      1 <0>        -0.0123
     16 C11         2.3376    1.7432    3.5274 C.ar      1 <0>        -0.0953
     17 C12         2.7563    2.9487    4.0583 C.ar      1 <0>        -0.1292
     18 C13         3.4643    2.9731    5.2456 C.ar      1 <0>        -0.1334
     19 C14         3.7537    1.7921    5.9023 C.ar      1 <0>        -0.1284
     20 C15         3.3299    0.5854    5.3742 C.ar      1 <0>         0.0030
     21 Cl1         3.6873   -0.8981    6.2019 Cl        1 <0>        -0.0618
     22 C16         4.1463   -1.2982    2.1466 C.2       1 <0>         0.5273
     23 O5          4.6580   -1.4491    1.0530 O.2       1 <0>        -0.5607
     24 O6          4.8793   -1.4782    3.2652 O.3       1 <0>        -0.3308
     25 C17         6.2493   -1.8451    3.0911 C.3       1 <0>         0.0812
     26 C18         7.1092   -0.5822    3.0101 C.3       1 <0>        -0.1647
     27 C19         6.7042   -2.6966    4.2781 C.3       1 <0>        -0.1464
     28 C20         2.7336   -0.9438   -0.2190 C.3       1 <0>        -0.1108
     29 H1         -1.1920   -1.5674   -0.2851 H         1 <0>         0.0854
     30 H2         -0.9594   -0.5792   -1.7471 H         1 <0>         0.0582
     31 H3          0.3455   -1.6477   -1.1783 H         1 <0>         0.0512
     32 H4          0.8106    0.7159   -0.5902 H         1 <0>         0.0707
     33 H5         -0.7269    0.7961    0.3030 H         1 <0>         0.0959
     34 H6          2.4960   -1.5638    4.2558 H         1 <0>         0.0890
     35 H7          1.7849    1.7247    2.5997 H         1 <0>         0.1169
     36 H8          2.5307    3.8719    3.5453 H         1 <0>         0.1136
     37 H9          3.7915    3.9154    5.6598 H         1 <0>         0.1152
     38 H10         4.3070    1.8113    6.8296 H         1 <0>         0.1185
     39 H11         6.3578   -2.4182    2.1702 H         1 <0>         0.0737
     40 H12         8.1543   -0.8621    2.8772 H         1 <0>         0.0601
     41 H13         6.7852    0.0243    2.1644 H         1 <0>         0.0578
     42 H14         7.0008   -0.0092    3.9310 H         1 <0>         0.0626
     43 H15         6.0915   -3.5963    4.3358 H         1 <0>         0.0615
     44 H16         7.7492   -2.9765    4.1452 H         1 <0>         0.0646
     45 H17         6.5957   -2.1236    5.1990 H         1 <0>         0.0664
     46 H18         2.0261   -0.7026   -1.0124 H         1 <0>         0.0581
     47 H19         3.5978   -0.2833   -0.2897 H         1 <0>         0.0895
     48 H20         3.0580   -1.9791   -0.3238 H         1 <0>         0.0883
@<TRIPOS>BOND
     1    1    2 1
     2    1   29 1
     3    1   30 1
     4    1   31 1
     5    2    3 1
     6    2   32 1
     7    2   33 1
     8    3    8 1
     9    3    4 1
    10    4    5 2
    11    4   28 1
    12    5    6 1
    13    5   22 1
    14    6    7 1
    15    6   15 1
    16    6   34 1
    17    7    8 2
    18    7   12 1
    19    8    9 1
    20    9   10 2
    21    9   11 1
    22   12   13 2
    23   12   14 1
    24   15   20 ar
    25   15   16 ar
    26   16   17 ar
    27   16   35 1
    28   17   18 ar
    29   17   36 1
    30   18   19 ar
    31   18   37 1
    32   19   20 ar
    33   19   38 1
    34   20   21 1
    35   22   23 2
    36   22   24 1
    37   24   25 1
    38   25   26 1
    39   25   27 1
    40   25   39 1
    41   26   40 1
    42   26   41 1
    43   26   42 1
    44   27   43 1
    45   27   44 1
    46   27   45 1
    47   28   46 1
    48   28   47 1
    49   28   48 1
@<TRIPOS>MOLECULE
CHEMBL114950__1
   48    49     0     0     0
SMALL
USER_CHARGES

@<TRIPOS>ATOM
      1 C1          0.2417    1.4131   -0.2548 C.3       1 <0>        -0.1765
      2 C2          0.2101   -0.1138   -0.1639 C.3       1 <0>         0.1046
      3 N1          0.8125   -0.5402    1.1016 N.pl3     1 <0>        -0.4910
      4 C3          2.1553   -0.7862    1.1682 C.2       1 <0>         0.2483
      5 C4          2.6775   -1.4997    2.1806 C.2       1 <0>        -0.3153
      6 C5          1.8152   -2.0632    3.2736 C.3       1 <0>         0.0790
      7 C6          0.4644   -1.4055    3.2805 C.2       1 <0>        -0.2220
      8 C7          0.0255   -0.6863    2.2211 C.2       1 <0>         0.0674
      9 C8         -1.3166   -0.0540    2.2640 C.2       1 <0>         0.5838
     10 O1         -1.4332    1.1080    2.6230 O.co2     1 <0>        -0.6871
     11 O2         -2.3047   -0.6956    1.9403 O.co2     1 <0>        -0.6877
     12 C9         -0.3935   -1.5413    4.4592 C.2       1 <0>         0.5234
     13 O3         -1.4482   -0.9231    4.5232 O.co2     1 <0>        -0.6574
     14 O4         -0.0560   -2.2731    5.3809 O.co2     1 <0>        -0.7051
     15 C10         1.6442   -3.5446    3.0563 C.ar      1 <0>        -0.0122
     16 C11         1.0665   -4.0101    1.8898 C.ar      1 <0>        -0.0959
     17 C12         0.9096   -5.3688    1.6903 C.ar      1 <0>        -0.1290
     18 C13         1.3304   -6.2631    2.6571 C.ar      1 <0>        -0.1338
     19 C14         1.9080   -5.7990    3.8236 C.ar      1 <0>        -0.1277
     20 C15         2.0705   -4.4392    4.0214 C.ar      1 <0>         0.0023
     21 Cl1         2.8021   -3.8557    5.4836 Cl        1 <0>        -0.0617
     22 C16         4.0731   -1.7256    2.2174 C.2       1 <0>         0.5272
     23 O5          4.7856   -1.2761    1.3392 O.2       1 <0>        -0.5608
     24 O6          4.6148   -2.4396    3.2263 O.3       1 <0>        -0.3309
     25 C17         6.0309   -2.6288    3.1999 C.3       1 <0>         0.0814
     26 C18         6.7124   -1.4848    3.9534 C.3       1 <0>        -0.1670
     27 C19         6.3802   -3.9597    3.8690 C.3       1 <0>        -0.1449
     28 C20         3.0630   -0.2505    0.0911 C.3       1 <0>        -0.1104
     29 H1          1.2746    1.7585   -0.2095 H         1 <0>         0.0508
     30 H2         -0.2065    1.7304   -1.1964 H         1 <0>         0.0579
     31 H3         -0.3204    1.8384    0.5766 H         1 <0>         0.0870
     32 H4         -0.8228   -0.4592   -0.2092 H         1 <0>         0.0953
     33 H5          0.7722   -0.5391   -0.9953 H         1 <0>         0.0711
     34 H6          2.3003   -1.8962    4.2353 H         1 <0>         0.0892
     35 H7          0.7373   -3.3119    1.1344 H         1 <0>         0.1170
     36 H8          0.4579   -5.7319    0.7790 H         1 <0>         0.1137
     37 H9          1.2072   -7.3247    2.5008 H         1 <0>         0.1153
     38 H10         2.2363   -6.4977    4.5789 H         1 <0>         0.1187
     39 H11         6.3768   -2.6400    2.1663 H         1 <0>         0.0735
     40 H12         7.7926   -1.6291    3.9333 H         1 <0>         0.0606
     41 H13         6.4635   -0.5367    3.4767 H         1 <0>         0.0591
     42 H14         6.3665   -1.4736    4.9870 H         1 <0>         0.0630
     43 H15         5.8947   -4.7747    3.3322 H         1 <0>         0.0609
     44 H16         7.4605   -4.1039    3.8489 H         1 <0>         0.0641
     45 H17         6.0344   -3.9485    4.9026 H         1 <0>         0.0663
     46 H18         2.4722    0.2982   -0.6423 H         1 <0>         0.0580
     47 H19         3.8006    0.4171    0.5364 H         1 <0>         0.0906
     48 H20         3.5728   -1.0794   -0.3999 H         1 <0>         0.0867
@<TRIPOS>BOND
     1    1    2 1
     2    1   29 1
     3    1   30 1
     4    1   31 1
     5    2    3 1
     6    2   32 1
     7    2   33 1
     8    3    8 1
     9    3    4 1
    10    4    5 2
    11    4   28 1
    12    5    6 1
    13    5   22 1
    14    6    7 1
    15    6   15 1
    16    6   34 1
    17    7    8 2
    18    7   12 1
    19    8    9 1
    20    9   10 2
    21    9   11 1
    22   12   13 2
    23   12   14 1
    24   15   20 ar
    25   15   16 ar
    26   16   17 ar
    27   16   35 1
    28   17   18 ar
    29   17   36 1
    30   18   19 ar
    31   18   37 1
    32   19   20 ar
    33   19   38 1
    34   20   21 1
    35   22   23 2
    36   22   24 1
    37   24   25 1
    38   25   26 1
    39   25   27 1
    40   25   39 1
    41   26   40 1
    42   26   41 1
    43   26   42 1
    44   27   43 1
    45   27   44 1
    46   27   45 1
    47   28   46 1
    48   28   47 1
    49   28   48 1
@<TRIPOS>MOLECULE
CHEMBL373082
   65    69     0     0     0
SMALL
USER_CHARGES

@<TRIPOS>ATOM
      1 C1          0.0683    1.3394    0.7523 C.ar      1 <0>        -0.1170
      2 C2          1.2282    2.0690    0.5309 C.ar      1 <0>        -0.0769
      3 C3          2.4112    1.4276    0.2329 C.ar      1 <0>        -0.1518
      4 C4          2.4452    0.0390    0.1533 C.ar      1 <0>         0.0890
      5 C5          1.2705   -0.6998    0.3780 C.ar      1 <0>         0.0951
      6 C6          0.0794   -0.0235    0.6792 C.ar      1 <0>        -0.0507
      7 N1          1.2811   -2.0470    0.3064 N.2       1 <0>        -0.4776
      8 C7          2.3810   -2.6986    0.0264 C.2       1 <0>         0.3637
      9 C8          3.6350   -1.9612   -0.2161 C.2       1 <0>         0.5161
     10 O1          4.6621   -2.5601   -0.4765 O.2       1 <0>        -0.5066
     11 N2          3.6285   -0.6122   -0.1448 N.am      1 <0>        -0.5039
     12 C9          4.8570    0.1502   -0.3808 C.3       1 <0>         0.0781
     13 C10         5.5994    0.3437    0.9430 C.3       1 <0>        -0.0294
     14 N3          6.8312    1.1082    0.7063 N.4       1 <0>        -0.3776
     15 C11         7.7353    0.3253   -0.1447 C.3       1 <0>        -0.0146
     16 C12         8.9853    1.1492   -0.4610 C.3       1 <0>        -0.1447
     17 C13         9.6968    1.5096    0.8463 C.3       1 <0>        -0.1402
     18 C14         8.7212    2.2613    1.7565 C.3       1 <0>        -0.1451
     19 C15         7.4809    1.3962    1.9906 C.3       1 <0>        -0.0064
     20 N4          2.3675   -4.0812   -0.0417 N.pl3     1 <0>        -0.6237
     21 C16         1.1649   -4.7716    0.0721 C.ar      1 <0>         0.1764
     22 C17         0.0107   -4.2574   -0.5124 C.ar      1 <0>        -0.1170
     23 C18        -1.1803   -4.9380   -0.4017 C.ar      1 <0>        -0.0356
     24 C19        -1.2304   -6.1467    0.2986 C.ar      1 <0>        -0.1440
     25 C20        -0.0699   -6.6605    0.8844 C.ar      1 <0>        -0.0626
     26 C21         1.1193   -5.9781    0.7653 C.ar      1 <0>        -0.1468
     27 C22        -2.5059   -6.8786    0.4196 C.2       1 <0>         0.5607
     28 O2         -3.5147   -6.4305   -0.0901 O.2       1 <0>        -0.5308
     29 N5         -2.5526   -8.0440    1.0951 N.am      1 <0>        -0.7241
     30 C23        -3.8190   -8.7707    1.2153 C.3       1 <0>         0.2079
     31 C24        -3.6011  -10.0315    2.0115 C.2       1 <0>        -0.1807
     32 C25        -3.6991  -10.2236    3.3497 C.2       1 <0>        -0.1284
     33 C26        -3.4524  -11.4818    3.8661 C.2       1 <0>        -0.1651
     34 C27        -3.1198  -12.4864    3.0190 C.2       1 <0>        -0.1594
     35 S1         -3.1545  -11.6614    1.4362 S.3       1 <0>         0.0539
     36 H1         -0.8508    1.8548    0.9890 H         1 <0>         0.1410
     37 H2          1.2035    3.1469    0.5923 H         1 <0>         0.1379
     38 H3          3.3097    2.0017    0.0611 H         1 <0>         0.1261
     39 H4         -0.8290   -0.5810    0.8536 H         1 <0>         0.1476
     40 H5          5.4938   -0.3938   -1.0784 H         1 <0>         0.1212
     41 H6          4.6053    1.1236   -0.8019 H         1 <0>         0.1177
     42 H7          4.9625    0.8877    1.6405 H         1 <0>         0.1388
     43 H8          5.8510   -0.6297    1.3641 H         1 <0>         0.1373
     44 H9          8.0245   -0.5874    0.3763 H         1 <0>         0.1322
     45 H10         7.2265    0.0668   -1.0734 H         1 <0>         0.1306
     46 H11         9.6561    0.5655   -1.0915 H         1 <0>         0.1141
     47 H12         8.6973    2.0621   -0.9823 H         1 <0>         0.0888
     48 H13        10.0303    0.5985    1.3430 H         1 <0>         0.0825
     49 H14        10.5565    2.1441    0.6305 H         1 <0>         0.0958
     50 H15         9.2031    2.4725    2.7111 H         1 <0>         0.1141
     51 H16         8.4276    3.1973    1.2812 H         1 <0>         0.0889
     52 H17         6.7843    1.9283    2.6384 H         1 <0>         0.1315
     53 H18         7.7756    0.4606    2.4661 H         1 <0>         0.1297
     54 H19         3.1965   -4.5687   -0.1686 H         1 <0>         0.4302
     55 H20         0.0500   -3.3233   -1.0531 H         1 <0>         0.1367
     56 H21        -2.0754   -4.5384   -0.8551 H         1 <0>         0.1429
     57 H22        -0.1055   -7.5939    1.4264 H         1 <0>         0.1320
     58 H23         2.0173   -6.3767    1.2140 H         1 <0>         0.1338
     59 H24        -1.7478   -8.4015    1.5018 H         1 <0>         0.4022
     60 H25        -4.5515   -8.1427    1.7224 H         1 <0>         0.0944
     61 H26        -4.1863   -9.0273    0.2217 H         1 <0>         0.0871
     62 H27        -3.9656   -9.4057    4.0028 H         1 <0>         0.1358
     63 H28        -3.5233  -11.6617    4.9287 H         1 <0>         0.1375
     64 H29        -2.8958  -13.5189    3.2431 H         1 <0>         0.1889
     65 H30         6.6040    1.9755    0.2436 H         1 <0>         0.4228
@<TRIPOS>BOND
     1    1    6 ar
     2    1    2 ar
     3    1   36 1
     4    2    3 ar
     5    2   37 1
     6    3    4 ar
     7    3   38 1
     8    4   11 1
     9    4    5 ar
    10    5    6 ar
    11    5    7 1
    12    6   39 1
    13    7    8 2
    14    8    9 1
    15    8   20 1
    16    9   10 2
    17    9   11 am
    18   11   12 1
    19   12   13 1
    20   12   40 1
    21   12   41 1
    22   13   14 1
    23   13   42 1
    24   13   43 1
    25   14   19 1
    26   14   15 1
    27   14   65 1
    28   15   16 1
    29   15   44 1
    30   15   45 1
    31   16   17 1
    32   16   46 1
    33   16   47 1
    34   17   18 1
    35   17   48 1
    36   17   49 1
    37   18   19 1
    38   18   50 1
    39   18   51 1
    40   19   52 1
    41   19   53 1
    42   20   21 1
    43   20   54 1
    44   21   26 ar
    45   21   22 ar
    46   22   23 ar
    47   22   55 1
    48   23   24 ar
    49   23   56 1
    50   24   25 ar
    51   24   27 1
    52   25   26 ar
    53   25   57 1
    54   26   58 1
    55   27   28 2
    56   27   29 am
    57   29   30 1
    58   29   59 1
    59   30   31 1
    60   30   60 1
    61   30   61 1
    62   31   35 1
    63   31   32 2
    64   32   33 1
    65   32   62 1
    66   33   34 2
    67   33   63 1
    68   34   35 1
    69   34   64 1
@<TRIPOS>MOLECULE
CHEMBL138822
   43    46     0     0     0
SMALL
USER_CHARGES

@<TRIPOS>ATOM
      1 C1         -0.0178    1.4608    0.0101 C.3       1 <0>         0.0666
      2 N1          0.0021   -0.0041    0.0020 N.am      1 <0>        -0.5510
      3 C2         -1.2031   -0.7117    0.0039 C.ar      1 <0>         0.1639
      4 C3         -2.3946   -0.0532   -0.2745 C.ar      1 <0>        -0.1526
      5 C4         -3.5833   -0.7556   -0.2871 C.ar      1 <0>        -0.0826
      6 C5         -3.5891   -2.1133   -0.0240 C.ar      1 <0>        -0.1385
      7 C6         -2.4060   -2.7702    0.2593 C.ar      1 <0>        -0.0780
      8 C7         -1.2145   -2.0714    0.2799 C.ar      1 <0>        -0.1382
      9 C8          0.0693   -2.7829    0.6224 C.3       1 <0>        -0.0882
     10 C9          1.2289   -2.1513   -0.1482 C.3       1 <0>         0.1389
     11 C10         1.1792   -0.6529   -0.0127 C.2       1 <0>         0.5044
     12 O1          2.2121   -0.0251    0.0880 O.2       1 <0>        -0.4950
     13 N2          1.1257   -2.5112   -1.5645 N.am      1 <0>        -0.7165
     14 C11         2.2289   -2.5239   -2.3387 C.2       1 <0>         0.5846
     15 O2          3.3103   -2.2366   -1.8614 O.2       1 <0>        -0.4903
     16 C12         2.1253   -2.8851   -3.7605 C.2       1 <0>         0.0199
     17 C13         3.1620   -2.9393   -4.6369 C.2       1 <0>        -0.0847
     18 C14         2.6422   -3.3248   -5.8963 C.ar      1 <0>        -0.1219
     19 C15         3.2242   -3.5408   -7.1522 C.ar      1 <0>         0.0066
     20 C16         2.4437   -3.9162   -8.2064 C.ar      1 <0>        -0.1564
     21 C17         1.0741   -4.0872   -8.0472 C.ar      1 <0>        -0.0012
     22 C18         0.4786   -3.8810   -6.8232 C.ar      1 <0>        -0.0687
     23 C19         1.2539   -3.4974   -5.7322 C.ar      1 <0>         0.1596
     24 N3          0.9592   -3.2291   -4.4165 N.pl3     1 <0>        -0.5585
     25 H1          0.0771   -3.2723   -4.0152 H         1 <0>         0.4312
     26 N4         -0.9815   -4.0671   -6.6673 N.pl3     1 <0>         0.0446
     27 O3         -1.6531   -4.4006   -7.6157 O.2       1 <0>        -0.1492
     28 O4         -1.5026   -3.8855   -5.5916 O.3       1 <0>        -0.1910
     29 H2          1.0048    1.8381    0.0023 H         1 <0>         0.0963
     30 H3         -0.5450    1.8219   -0.8730 H         1 <0>         0.0701
     31 H4         -0.5280    1.8123    0.9069 H         1 <0>         0.0727
     32 H5         -2.3909    1.0070   -0.4806 H         1 <0>         0.1299
     33 H6         -4.5098   -0.2440   -0.5023 H         1 <0>         0.1300
     34 H7         -4.5196   -2.6614   -0.0396 H         1 <0>         0.1288
     35 H8         -2.4132   -3.8306    0.4644 H         1 <0>         0.1317
     36 H9          0.2563   -2.6984    1.6929 H         1 <0>         0.1053
     37 H10        -0.0158   -3.8352    0.3516 H         1 <0>         0.1028
     38 H11         2.1733   -2.5216    0.2508 H         1 <0>         0.1348
     39 H12         0.2634   -2.7402   -1.9452 H         1 <0>         0.4036
     40 H13         4.1969   -2.7261   -4.4133 H         1 <0>         0.1717
     41 H14         4.2880   -3.4101   -7.2857 H         1 <0>         0.1499
     42 H15         2.8946   -4.0818   -9.1737 H         1 <0>         0.1534
     43 H16         0.4705   -4.3843   -8.8921 H         1 <0>         0.1612
@<TRIPOS>BOND
     1    1    2 1
     2    1   29 1
     3    1   30 1
     4    1   31 1
     5    2   11 am
     6    2    3 1
     7    3    8 ar
     8    3    4 ar
     9    4    5 ar
    10    4   32 1
    11    5    6 ar
    12    5   33 1
    13    6    7 ar
    14    6   34 1
    15    7    8 ar
    16    7   35 1
    17    8    9 1
    18    9   10 1
    19    9   36 1
    20    9   37 1
    21   10   11 1
    22   10   13 1
    23   10   38 1
    24   11   12 2
    25   13   14 am
    26   13   39 1
    27   14   15 2
    28   14   16 1
    29   16   24 1
    30   16   17 2
    31   17   18 1
    32   17   40 1
    33   18   23 ar
    34   18   19 ar
    35   19   20 ar
    36   19   41 1
    37   20   21 ar
    38   20   42 1
    39   21   22 ar
    40   21   43 1
    41   22   23 ar
    42   22   26 1
    43   23   24 1
    44   24   25 1
    45   26   27 2
    46   26   28 1
@<TRIPOS>MOLECULE
CHEMBL138822__1
   43    46     0     0     0
SMALL
USER_CHARGES

@<TRIPOS>ATOM
      1 C1         -0.0178    1.4608    0.0101 C.3       1 <0>         0.0665
      2 N1          0.0021   -0.0041    0.0020 N.am      1 <0>        -0.5511
      3 C2         -1.2031   -0.7117    0.0039 C.ar      1 <0>         0.1641
      4 C3         -2.3917   -0.0565    0.3017 C.ar      1 <0>        -0.1526
      5 C4         -3.5803   -0.7591    0.3180 C.ar      1 <0>        -0.0826
      6 C5         -3.5888   -2.1137    0.0393 C.ar      1 <0>        -0.1386
      7 C6         -2.4084   -2.7674   -0.2624 C.ar      1 <0>        -0.0779
      8 C7         -1.2173   -2.0681   -0.2876 C.ar      1 <0>        -0.1384
      9 C8          0.0630   -2.7755   -0.6510 C.3       1 <0>        -0.0885
     10 C9          1.2302   -2.1528    0.1153 C.3       1 <0>         0.1389
     11 C10         1.1792   -0.6529   -0.0127 C.2       1 <0>         0.5044
     12 O1          2.2100   -0.0239   -0.1263 O.2       1 <0>        -0.4949
     13 N2          1.1410   -2.5290    1.5283 N.am      1 <0>        -0.7159
     14 C11         2.2518   -2.5506    2.2913 C.2       1 <0>         0.5847
     15 O2          3.3285   -2.2578    1.8067 O.2       1 <0>        -0.4905
     16 C12         2.1623   -2.9282    3.7098 C.2       1 <0>         0.0198
     17 C13         3.2059   -2.9812    4.5782 C.2       1 <0>        -0.0847
     18 C14         2.6992   -3.3856    5.8369 C.ar      1 <0>        -0.1219
     19 C15         3.2926   -3.6091    7.0863 C.ar      1 <0>         0.0066
     20 C16         2.5237   -4.0040    8.1419 C.ar      1 <0>        -0.1564
     21 C17         1.1547   -4.1874    7.9907 C.ar      1 <0>        -0.0012
     22 C18         0.5483   -3.9742    6.7732 C.ar      1 <0>        -0.0687
     23 C19         1.3117   -3.5707    5.6810 C.ar      1 <0>         0.1596
     24 N3          1.0027   -3.2798    4.3733 N.pl3     1 <0>        -0.5585
     25 H1          0.1166   -3.3174    3.9806 H         1 <0>         0.4312
     26 N4         -0.9111   -4.1727    6.6261 N.pl3     1 <0>         0.0445
     27 O3         -1.5724   -4.5227    7.5758 O.2       1 <0>        -0.1492
     28 O4         -1.4419   -3.9850    5.5562 O.3       1 <0>        -0.1910
     29 H2          1.0048    1.8381    0.0023 H         1 <0>         0.0963
     30 H3         -0.5450    1.8219   -0.8730 H         1 <0>         0.0726
     31 H4         -0.5280    1.8123    0.9069 H         1 <0>         0.0702
     32 H5         -2.3859    1.0011    0.5206 H         1 <0>         0.1299
     33 H6         -4.5045   -0.2502    0.5489 H         1 <0>         0.1300
     34 H7         -4.5191   -2.6620    0.0577 H         1 <0>         0.1288
     35 H8         -2.4177   -3.8254   -0.4789 H         1 <0>         0.1317
     36 H9         -0.0195   -3.8310   -0.3915 H         1 <0>         0.1028
     37 H10         0.2394   -2.6787   -1.7223 H         1 <0>         0.1053
     38 H11         2.1706   -2.5184   -0.2972 H         1 <0>         0.1345
     39 H12         0.2825   -2.7625    1.9148 H         1 <0>         0.4037
     40 H13         4.2370   -2.7559    4.3492 H         1 <0>         0.1717
     41 H14         4.3560   -3.4695    7.2133 H         1 <0>         0.1499
     42 H15         2.9834   -4.1761    9.1039 H         1 <0>         0.1534
     43 H16         0.5606   -4.5007    8.8364 H         1 <0>         0.1613
@<TRIPOS>BOND
     1    1    2 1
     2    1   29 1
     3    1   30 1
     4    1   31 1
     5    2   11 am
     6    2    3 1
     7    3    8 ar
     8    3    4 ar
     9    4    5 ar
    10    4   32 1
    11    5    6 ar
    12    5   33 1
    13    6    7 ar
    14    6   34 1
    15    7    8 ar
    16    7   35 1
    17    8    9 1
    18    9   10 1
    19    9   36 1
    20    9   37 1
    21   10   11 1
    22   10   13 1
    23   10   38 1
    24   11   12 2
    25   13   14 am
    26   13   39 1
    27   14   15 2
    28   14   16 1
    29   16   24 1
    30   16   17 2
    31   17   18 1
    32   17   40 1
    33   18   23 ar
    34   18   19 ar
    35   19   20 ar
    36   19   41 1
    37   20   21 ar
    38   20   42 1
    39   21   22 ar
    40   21   43 1
    41   22   23 ar
    42   22   26 1
    43   23   24 1
    44   24   25 1
    45   26   27 2
    46   26   28 1
@<TRIPOS>MOLECULE
CHEMBL194356
   46    49     0     0     0
SMALL
USER_CHARGES

@<TRIPOS>ATOM
      1 C1          0.1189    1.4265    0.9377 C.3       1 <0>         0.0636
      2 N1          0.2636   -0.0222    1.1006 N.am      1 <0>        -0.5065
      3 C2         -0.5975   -0.7249    1.9238 C.ar      1 <0>         0.1078
      4 C3         -1.6120   -0.0607    2.6059 C.ar      1 <0>        -0.1428
      5 C4         -2.4661   -0.7683    3.4240 C.ar      1 <0>        -0.0811
      6 C5         -2.3222   -2.1408    3.5731 C.ar      1 <0>        -0.1286
      7 C6         -1.3340   -2.8121    2.9131 C.ar      1 <0>        -0.0556
      8 C7         -0.4519   -2.1151    2.0748 C.ar      1 <0>         0.0787
      9 N2          0.5245   -2.7792    1.4223 N.2       1 <0>        -0.4796
     10 C8          1.3587   -2.1489    0.6351 C.2       1 <0>         0.3565
     11 C9          1.2366   -0.6915    0.4445 C.2       1 <0>         0.5090
     12 O1          2.0049   -0.0991   -0.2904 O.2       1 <0>        -0.5133
     13 N3          2.3527   -2.8516   -0.0241 N.pl3     1 <0>        -0.6294
     14 C10         2.3942   -4.2400    0.0576 C.ar      1 <0>         0.1903
     15 C11         1.2101   -4.9722    0.0469 C.ar      1 <0>        -0.1204
     16 C12         1.2478   -6.3455    0.1270 C.ar      1 <0>        -0.0344
     17 C13         2.4768   -7.0053    0.2193 C.ar      1 <0>        -0.1552
     18 C14         3.6639   -6.2674    0.2299 C.ar      1 <0>        -0.0620
     19 C15         3.6199   -4.8945    0.1441 C.ar      1 <0>        -0.1527
     20 C16         2.5207   -8.4776    0.3059 C.2       1 <0>         0.5641
     21 O2          1.4873   -9.1182    0.2971 O.2       1 <0>        -0.5344
     22 N4          3.7063   -9.1123    0.3948 N.am      1 <0>        -0.7262
     23 C17         3.7500  -10.5741    0.4808 C.3       1 <0>         0.2078
     24 C18         5.1837  -11.0295    0.5704 C.2       1 <0>        -0.1761
     25 C19         5.9477  -11.2323    1.6716 C.2       1 <0>        -0.1307
     26 C20         7.2535  -11.6569    1.5125 C.2       1 <0>        -0.1636
     27 C21         7.7315  -11.8579    0.2601 C.2       1 <0>        -0.1625
     28 S1          6.3144  -11.4493   -0.7459 S.3       1 <0>         0.0523
     29 H1          0.8820    1.7929    0.2510 H         1 <0>         0.1030
     30 H2         -0.8693    1.6500    0.5355 H         1 <0>         0.0820
     31 H3          0.2362    1.9144    1.9053 H         1 <0>         0.0821
     32 H4         -1.7296    1.0071    2.4949 H         1 <0>         0.1343
     33 H5         -3.2529   -0.2512    3.9531 H         1 <0>         0.1343
     34 H6         -2.9985   -2.6826    4.2177 H         1 <0>         0.1349
     35 H7         -1.2315   -3.8802    3.0363 H         1 <0>         0.1414
     36 H8          3.0203   -2.3762   -0.5429 H         1 <0>         0.4299
     37 H9          0.2609   -4.4619   -0.0241 H         1 <0>         0.1378
     38 H10         0.3289   -6.9130    0.1190 H         1 <0>         0.1404
     39 H11         4.6149   -6.7743    0.3014 H         1 <0>         0.1289
     40 H12         4.5369   -4.3241    0.1480 H         1 <0>         0.1333
     41 H13         4.5307   -8.6012    0.4019 H         1 <0>         0.4024
     42 H14         3.2084  -10.9022    1.3681 H         1 <0>         0.0935
     43 H15         3.2870  -11.0043   -0.4072 H         1 <0>         0.0859
     44 H16         5.5424  -11.0643    2.6584 H         1 <0>         0.1361
     45 H17         7.8836  -11.8256    2.3733 H         1 <0>         0.1367
     46 H18         8.7135  -12.1844   -0.0488 H         1 <0>         0.1879
@<TRIPOS>BOND
     1    1    2 1
     2    1   29 1
     3    1   30 1
     4    1   31 1
     5    2   11 am
     6    2    3 1
     7    3    8 ar
     8    3    4 ar
     9    4    5 ar
    10    4   32 1
    11    5    6 ar
    12    5   33 1
    13    6    7 ar
    14    6   34 1
    15    7    8 ar
    16    7   35 1
    17    8    9 1
    18    9   10 2
    19   10   11 1
    20   10   13 1
    21   11   12 2
    22   13   14 1
    23   13   36 1
    24   14   19 ar
    25   14   15 ar
    26   15   16 ar
    27   15   37 1
    28   16   17 ar
    29   16   38 1
    30   17   18 ar
    31   17   20 1
    32   18   19 ar
    33   18   39 1
    34   19   40 1
    35   20   21 2
    36   20   22 am
    37   22   23 1
    38   22   41 1
    39   23   24 1
    40   23   42 1
    41   23   43 1
    42   24   28 1
    43   24   25 2
    44   25   26 1
    45   25   44 1
    46   26   27 2
    47   26   45 1
    48   27   28 1
    49   27   46 1
@<TRIPOS>MOLECULE
CHEMBL382077
   50    53     0     0     0
SMALL
USER_CHARGES

@<TRIPOS>ATOM
      1 C1          0.6700    0.3212    3.5690 C.ar      1 <0>        -0.1313
      2 C2          1.7814    1.1366    3.4053 C.ar      1 <0>        -0.0810
      3 C3          2.8127    0.7541    2.5749 C.ar      1 <0>        -0.1500
      4 C4          2.7415   -0.4578    1.8952 C.ar      1 <0>         0.1117
      5 C5          1.6161   -1.2837    2.0614 C.ar      1 <0>         0.0784
      6 C6          0.5798   -0.8715    2.9117 C.ar      1 <0>        -0.0549
      7 N1          1.5267   -2.4630    1.4123 N.2       1 <0>        -0.4841
      8 C7          2.4815   -2.8671    0.6137 C.2       1 <0>         0.3593
      9 C8          3.6791   -2.0305    0.4117 C.2       1 <0>         0.5137
     10 O1          4.5716   -2.3996   -0.3290 O.2       1 <0>        -0.4932
     11 N2          3.7725   -0.8491    1.0603 N.am      1 <0>        -0.5028
     12 C9          4.9486    0.0058    0.8812 C.3       1 <0>         0.0994
     13 C10         6.0055   -0.3551    1.9269 C.3       1 <0>         0.0584
     14 O2          6.4680   -1.6874    1.6966 O.3       1 <0>        -0.5592
     15 N3          2.3675   -4.0812   -0.0417 N.pl3     1 <0>        -0.6293
     16 C11         1.1906   -4.8169    0.0564 C.ar      1 <0>         0.1914
     17 C12        -0.0387   -4.1635    0.0602 C.ar      1 <0>        -0.1206
     18 C13        -1.2046   -4.8884    0.1570 C.ar      1 <0>        -0.0344
     19 C14        -1.1535   -6.2821    0.2516 C.ar      1 <0>        -0.1560
     20 C15         0.0824   -6.9353    0.2476 C.ar      1 <0>        -0.0620
     21 C16         1.2445   -6.2052    0.1447 C.ar      1 <0>        -0.1532
     22 C17        -2.4015   -7.0622    0.3561 C.2       1 <0>         0.5643
     23 O3         -3.4759   -6.4928    0.3599 O.2       1 <0>        -0.5348
     24 N4         -2.3507   -8.4060    0.4472 N.am      1 <0>        -0.7263
     25 C18        -3.5898   -9.1805    0.5509 C.3       1 <0>         0.2078
     26 C19        -3.2590  -10.6481    0.6394 C.2       1 <0>        -0.1759
     27 C20        -3.0347  -11.4078    1.7393 C.2       1 <0>        -0.1309
     28 C21        -2.7450  -12.7498    1.5794 C.2       1 <0>        -0.1635
     29 C22        -2.6938  -13.2666    0.3274 C.2       1 <0>        -0.1626
     30 S1         -3.0685  -11.8389   -0.6770 S.3       1 <0>         0.0522
     31 H1         -0.1289    0.6316    4.2261 H         1 <0>         0.1338
     32 H2          1.8382    2.0776    3.9322 H         1 <0>         0.1331
     33 H3          3.6741    1.3938    2.4517 H         1 <0>         0.1322
     34 H4         -0.2894   -1.4981    3.0467 H         1 <0>         0.1404
     35 H5          5.3589   -0.1453   -0.1173 H         1 <0>         0.1082
     36 H6          4.6603    1.0501    1.0013 H         1 <0>         0.1099
     37 H7          6.8430    0.3384    1.8514 H         1 <0>         0.0669
     38 H8          5.5681   -0.2894    2.9232 H         1 <0>         0.0518
     39 H9          7.1414   -1.9839    2.3240 H         1 <0>         0.3810
     40 H10         3.1081   -4.4190   -0.5692 H         1 <0>         0.4299
     41 H11        -0.0776   -3.0867   -0.0126 H         1 <0>         0.1379
     42 H12        -2.1579   -4.3810    0.1603 H         1 <0>         0.1401
     43 H13         0.1251   -8.0119    0.3209 H         1 <0>         0.1286
     44 H14         2.1995   -6.7096    0.1371 H         1 <0>         0.1331
     45 H15        -1.4936   -8.8602    0.4442 H         1 <0>         0.4024
     46 H16        -4.1347   -8.8764    1.4447 H         1 <0>         0.0934
     47 H17        -4.2062   -8.9994   -0.3296 H         1 <0>         0.0858
     48 H18        -3.0812  -10.9709    2.7259 H         1 <0>         0.1361
     49 H19        -2.5619  -13.3772    2.4392 H         1 <0>         0.1366
     50 H20        -2.4847  -14.2799    0.0179 H         1 <0>         0.1879
@<TRIPOS>BOND
     1    1    6 ar
     2    1    2 ar
     3    1   31 1
     4    2    3 ar
     5    2   32 1
     6    3    4 ar
     7    3   33 1
     8    4   11 1
     9    4    5 ar
    10    5    6 ar
    11    5    7 1
    12    6   34 1
    13    7    8 2
    14    8    9 1
    15    8   15 1
    16    9   10 2
    17    9   11 am
    18   11   12 1
    19   12   13 1
    20   12   35 1
    21   12   36 1
    22   13   14 1
    23   13   37 1
    24   13   38 1
    25   14   39 1
    26   15   16 1
    27   15   40 1
    28   16   21 ar
    29   16   17 ar
    30   17   18 ar
    31   17   41 1
    32   18   19 ar
    33   18   42 1
    34   19   20 ar
    35   19   22 1
    36   20   21 ar
    37   20   43 1
    38   21   44 1
    39   22   23 2
    40   22   24 am
    41   24   25 1
    42   24   45 1
    43   25   26 1
    44   25   46 1
    45   25   47 1
    46   26   30 1
    47   26   27 2
    48   27   28 1
    49   27   48 1
    50   28   29 2
    51   28   49 1
    52   29   30 1
    53   29   50 1
@<TRIPOS>MOLECULE
CHEMBL194177
   42    45     0     0     0
SMALL
USER_CHARGES

@<TRIPOS>ATOM
      1 C1          0.1196    1.4270    0.9374 C.3       1 <0>         0.0633
      2 N1          0.2640   -0.0217    1.1004 N.am      1 <0>        -0.5062
      3 C2         -0.5973   -0.7241    1.9237 C.ar      1 <0>         0.1094
      4 C3         -1.6116   -0.0596    2.6058 C.ar      1 <0>        -0.1430
      5 C4         -2.4659   -0.7670    3.4239 C.ar      1 <0>        -0.0795
      6 C5         -2.3223   -2.1395    3.5731 C.ar      1 <0>        -0.1287
      7 C6         -1.3339   -2.8110    2.9136 C.ar      1 <0>        -0.0547
      8 C7         -0.4520   -2.1143    2.0748 C.ar      1 <0>         0.0768
      9 N2          0.5243   -2.7787    1.4224 N.2       1 <0>        -0.4781
     10 C8          1.3585   -2.1486    0.6351 C.2       1 <0>         0.3550
     11 C9          1.2368   -0.6913    0.4444 C.2       1 <0>         0.5092
     12 O1          2.0055   -0.0991   -0.2903 O.2       1 <0>        -0.5125
     13 N3          2.3527   -2.8516   -0.0236 N.pl3     1 <0>        -0.6299
     14 C10         2.3941   -4.2400    0.0585 C.ar      1 <0>         0.1997
     15 C11         1.2100   -4.9721    0.0479 C.ar      1 <0>        -0.1214
     16 C12         1.2476   -6.3454    0.1290 C.ar      1 <0>        -0.0266
     17 C13         2.4767   -7.0052    0.2221 C.ar      1 <0>        -0.1605
     18 C14         3.6640   -6.2671    0.2326 C.ar      1 <0>        -0.0579
     19 C15         3.6199   -4.8944    0.1454 C.ar      1 <0>        -0.1519
     20 C16         2.5206   -8.4770    0.3097 C.2       1 <0>         0.5771
     21 O2          1.4872   -9.1176    0.3009 O.2       1 <0>        -0.5029
     22 N4          3.7062   -9.1117    0.3994 N.am      1 <0>        -0.6322
     23 C17         3.7477  -10.5027    0.4822 C.2       1 <0>         0.3299
     24 C18         2.6320  -11.3700    0.4772 C.2       1 <0>        -0.2845
     25 C19         3.0845  -12.6326    0.5729 C.2       1 <0>         0.0536
     26 O3          4.4246  -12.5935    0.6370 O.3       1 <0>        -0.0706
     27 N5          4.8269  -11.2372    0.5725 N.2       1 <0>        -0.3531
     28 H1          0.8828    1.7932    0.2507 H         1 <0>         0.1033
     29 H2         -0.8685    1.6507    0.5352 H         1 <0>         0.0823
     30 H3          0.2370    1.9150    1.9049 H         1 <0>         0.0825
     31 H4         -1.7290    1.0082    2.4947 H         1 <0>         0.1348
     32 H5         -3.2526   -0.2496    3.9530 H         1 <0>         0.1348
     33 H6         -2.9989   -2.6812    4.2175 H         1 <0>         0.1353
     34 H7         -1.2310   -3.8789    3.0376 H         1 <0>         0.1415
     35 H8          3.0204   -2.3763   -0.5424 H         1 <0>         0.4311
     36 H9          0.2609   -4.4618   -0.0237 H         1 <0>         0.1408
     37 H10         0.3287   -6.9127    0.1210 H         1 <0>         0.1434
     38 H11         4.6150   -6.7739    0.3044 H         1 <0>         0.1312
     39 H12         4.5369   -4.3239    0.1487 H         1 <0>         0.1370
     40 H13         4.5306   -8.6006    0.4064 H         1 <0>         0.4213
     41 H14         1.5965  -11.0708    0.4091 H         1 <0>         0.1835
     42 H15         2.4750  -13.5240    0.5948 H         1 <0>         0.2173
@<TRIPOS>BOND
     1    1    2 1
     2    1   28 1
     3    1   29 1
     4    1   30 1
     5    2   11 am
     6    2    3 1
     7    3    8 ar
     8    3    4 ar
     9    4    5 ar
    10    4   31 1
    11    5    6 ar
    12    5   32 1
    13    6    7 ar
    14    6   33 1
    15    7    8 ar
    16    7   34 1
    17    8    9 1
    18    9   10 2
    19   10   11 1
    20   10   13 1
    21   11   12 2
    22   13   14 1
    23   13   35 1
    24   14   19 ar
    25   14   15 ar
    26   15   16 ar
    27   15   36 1
    28   16   17 ar
    29   16   37 1
    30   17   18 ar
    31   17   20 1
    32   18   19 ar
    33   18   38 1
    34   19   39 1
    35   20   21 2
    36   20   22 am
    37   22   23 1
    38   22   40 1
    39   23   27 2
    40   23   24 1
    41   24   25 2
    42   24   41 1
    43   25   26 1
    44   25   42 1
    45   26   27 1
@<TRIPOS>MOLECULE
CHEMBL337378
   44    47     0     0     0
SMALL
USER_CHARGES

@<TRIPOS>ATOM
      1 C1         -0.0178    1.4608    0.0101 C.3       1 <0>         0.0663
      2 N1          0.0021   -0.0041    0.0020 N.am      1 <0>        -0.5518
      3 C2         -1.2031   -0.7117    0.0039 C.ar      1 <0>         0.1662
      4 C3         -2.3946   -0.0532   -0.2745 C.ar      1 <0>        -0.1532
      5 C4         -3.5833   -0.7556   -0.2871 C.ar      1 <0>        -0.0834
      6 C5         -3.5891   -2.1133   -0.0240 C.ar      1 <0>        -0.1412
      7 C6         -2.4060   -2.7702    0.2593 C.ar      1 <0>        -0.0793
      8 C7         -1.2145   -2.0714    0.2799 C.ar      1 <0>        -0.1378
      9 C8          0.0693   -2.7829    0.6224 C.3       1 <0>        -0.0882
     10 C9          1.2289   -2.1513   -0.1482 C.3       1 <0>         0.1391
     11 C10         1.1792   -0.6529   -0.0127 C.2       1 <0>         0.5040
     12 O1          2.2121   -0.0251    0.0880 O.2       1 <0>        -0.4931
     13 N2          1.1257   -2.5112   -1.5645 N.am      1 <0>        -0.7181
     14 C11         2.2289   -2.5239   -2.3387 C.2       1 <0>         0.5839
     15 O2          3.3103   -2.2366   -1.8614 O.2       1 <0>        -0.4924
     16 C12         2.1253   -2.8851   -3.7605 C.2       1 <0>         0.0142
     17 C13         3.1620   -2.9389   -4.6370 C.2       1 <0>        -0.0852
     18 C14         2.6422   -3.3245   -5.8963 C.ar      1 <0>        -0.1256
     19 C15         3.2241   -3.5398   -7.1525 C.ar      1 <0>         0.0025
     20 C16         2.4435   -3.9152   -8.2067 C.ar      1 <0>        -0.2086
     21 C17         1.0739   -4.0863   -8.0475 C.ar      1 <0>        -0.0465
     22 C18         0.4785   -3.8803   -6.8234 C.ar      1 <0>        -0.1271
     23 C19         1.2540   -3.4977   -5.7322 C.ar      1 <0>         0.1402
     24 N3          0.9593   -3.2296   -4.4163 N.pl3     1 <0>        -0.5746
     25 H1          0.0772   -3.2729   -4.0150 H         1 <0>         0.4202
     26 C20         3.0727   -4.1460   -9.5565 C.3       1 <0>         0.5118
     27 F1          3.4619   -5.4852   -9.6667 F         1 <0>        -0.1764
     28 F2          2.1460   -3.8455  -10.5605 F         1 <0>        -0.1769
     29 F3          4.1944   -3.3215   -9.6953 F         1 <0>        -0.1770
     30 H2          1.0048    1.8381    0.0023 H         1 <0>         0.0967
     31 H3         -0.5450    1.8219   -0.8730 H         1 <0>         0.0702
     32 H4         -0.5280    1.8123    0.9069 H         1 <0>         0.0726
     33 H5         -2.3909    1.0070   -0.4806 H         1 <0>         0.1303
     34 H6         -4.5098   -0.2440   -0.5023 H         1 <0>         0.1298
     35 H7         -4.5196   -2.6614   -0.0396 H         1 <0>         0.1280
     36 H8         -2.4132   -3.8306    0.4644 H         1 <0>         0.1313
     37 H9          0.2563   -2.6984    1.6929 H         1 <0>         0.1049
     38 H10        -0.0158   -3.8352    0.3516 H         1 <0>         0.1024
     39 H11         2.1733   -2.5216    0.2508 H         1 <0>         0.1343
     40 H12         0.2634   -2.7402   -1.9452 H         1 <0>         0.4013
     41 H13         4.1968   -2.7257   -4.4134 H         1 <0>         0.1642
     42 H14         4.2878   -3.4087   -7.2860 H         1 <0>         0.1423
     43 H15         0.4704   -4.3834   -8.8924 H         1 <0>         0.1427
     44 H16        -0.5870   -4.0151   -6.7099 H         1 <0>         0.1368
@<TRIPOS>BOND
     1    1    2 1
     2    1   30 1
     3    1   31 1
     4    1   32 1
     5    2   11 am
     6    2    3 1
     7    3    8 ar
     8    3    4 ar
     9    4    5 ar
    10    4   33 1
    11    5    6 ar
    12    5   34 1
    13    6    7 ar
    14    6   35 1
    15    7    8 ar
    16    7   36 1
    17    8    9 1
    18    9   10 1
    19    9   37 1
    20    9   38 1
    21   10   11 1
    22   10   13 1
    23   10   39 1
    24   11   12 2
    25   13   14 am
    26   13   40 1
    27   14   15 2
    28   14   16 1
    29   16   24 1
    30   16   17 2
    31   17   18 1
    32   17   41 1
    33   18   23 ar
    34   18   19 ar
    35   19   20 ar
    36   19   42 1
    37   20   21 ar
    38   20   26 1
    39   21   22 ar
    40   21   43 1
    41   22   23 ar
    42   22   44 1
    43   23   24 1
    44   24   25 1
    45   26   27 1
    46   26   28 1
    47   26   29 1
@<TRIPOS>MOLECULE
CHEMBL337378__1
   44    47     0     0     0
SMALL
USER_CHARGES

@<TRIPOS>ATOM
      1 C1         -0.0178    1.4608    0.0101 C.3       1 <0>         0.0663
      2 N1          0.0021   -0.0041    0.0020 N.am      1 <0>        -0.5519
      3 C2         -1.2031   -0.7117    0.0039 C.ar      1 <0>         0.1663
      4 C3         -2.3917   -0.0565    0.3017 C.ar      1 <0>        -0.1531
      5 C4         -3.5803   -0.7591    0.3180 C.ar      1 <0>        -0.0833
      6 C5         -3.5888   -2.1137    0.0393 C.ar      1 <0>        -0.1413
      7 C6         -2.4084   -2.7674   -0.2624 C.ar      1 <0>        -0.0792
      8 C7         -1.2173   -2.0681   -0.2876 C.ar      1 <0>        -0.1379
      9 C8          0.0630   -2.7755   -0.6510 C.3       1 <0>        -0.0884
     10 C9          1.2302   -2.1528    0.1153 C.3       1 <0>         0.1391
     11 C10         1.1792   -0.6529   -0.0127 C.2       1 <0>         0.5040
     12 O1          2.2100   -0.0239   -0.1263 O.2       1 <0>        -0.4930
     13 N2          1.1410   -2.5290    1.5283 N.am      1 <0>        -0.7174
     14 C11         2.2518   -2.5506    2.2913 C.2       1 <0>         0.5839
     15 O2          3.3285   -2.2578    1.8067 O.2       1 <0>        -0.4926
     16 C12         2.1623   -2.9282    3.7098 C.2       1 <0>         0.0141
     17 C13         3.2060   -2.9816    4.5780 C.2       1 <0>        -0.0852
     18 C14         2.6993   -3.3858    5.8369 C.ar      1 <0>        -0.1257
     19 C15         3.2928   -3.6100    7.0860 C.ar      1 <0>         0.0026
     20 C16         2.5238   -4.0051    8.1416 C.ar      1 <0>        -0.2086
     21 C17         1.1549   -4.1883    7.9904 C.ar      1 <0>        -0.0464
     22 C18         0.5484   -3.9748    6.7731 C.ar      1 <0>        -0.1271
     23 C19         1.3116   -3.5704    5.6811 C.ar      1 <0>         0.1403
     24 N3          1.0027   -3.2794    4.3734 N.pl3     1 <0>        -0.5745
     25 H1          0.1165   -3.3168    3.9807 H         1 <0>         0.4202
     26 C20         3.1654   -4.2454    9.4839 C.3       1 <0>         0.5117
     27 F1          3.1597   -3.0574   10.2228 F         1 <0>        -0.1765
     28 F2          2.4477   -5.2277   10.1746 F         1 <0>        -0.1768
     29 F3          4.4844   -4.6740    9.3003 F         1 <0>        -0.1770
     30 H2          1.0048    1.8381    0.0023 H         1 <0>         0.0967
     31 H3         -0.5450    1.8219   -0.8730 H         1 <0>         0.0724
     32 H4         -0.5280    1.8123    0.9069 H         1 <0>         0.0703
     33 H5         -2.3859    1.0011    0.5206 H         1 <0>         0.1303
     34 H6         -4.5045   -0.2502    0.5489 H         1 <0>         0.1298
     35 H7         -4.5191   -2.6620    0.0577 H         1 <0>         0.1280
     36 H8         -2.4177   -3.8254   -0.4789 H         1 <0>         0.1313
     37 H9         -0.0195   -3.8310   -0.3915 H         1 <0>         0.1024
     38 H10         0.2394   -2.6787   -1.7223 H         1 <0>         0.1049
     39 H11         2.1706   -2.5184   -0.2972 H         1 <0>         0.1341
     40 H12         0.2825   -2.7625    1.9148 H         1 <0>         0.4014
     41 H13         4.2371   -2.7562    4.3491 H         1 <0>         0.1642
     42 H14         4.3562   -3.4709    7.2130 H         1 <0>         0.1423
     43 H15         0.5608   -4.5016    8.8361 H         1 <0>         0.1426
     44 H16        -0.5162   -4.1206    6.6655 H         1 <0>         0.1368
@<TRIPOS>BOND
     1    1    2 1
     2    1   30 1
     3    1   31 1
     4    1   32 1
     5    2   11 am
     6    2    3 1
     7    3    8 ar
     8    3    4 ar
     9    4    5 ar
    10    4   33 1
    11    5    6 ar
    12    5   34 1
    13    6    7 ar
    14    6   35 1
    15    7    8 ar
    16    7   36 1
    17    8    9 1
    18    9   10 1
    19    9   37 1
    20    9   38 1
    21   10   11 1
    22   10   13 1
    23   10   39 1
    24   11   12 2
    25   13   14 am
    26   13   40 1
    27   14   15 2
    28   14   16 1
    29   16   24 1
    30   16   17 2
    31   17   18 1
    32   17   41 1
    33   18   23 ar
    34   18   19 ar
    35   19   20 ar
    36   19   42 1
    37   20   21 ar
    38   20   26 1
    39   21   22 ar
    40   21   43 1
    41   22   23 ar
    42   22   44 1
    43   23   24 1
    44   24   25 1
    45   26   27 1
    46   26   28 1
    47   26   29 1
@<TRIPOS>MOLECULE
CHEMBL136218
   41    44     0     0     0
SMALL
USER_CHARGES

@<TRIPOS>ATOM
      1 C1         -0.0178    1.4608    0.0101 C.3       1 <0>         0.0664
      2 N1          0.0021   -0.0041    0.0020 N.am      1 <0>        -0.5520
      3 C2         -1.2031   -0.7117    0.0039 C.ar      1 <0>         0.1666
      4 C3         -2.3946   -0.0532   -0.2745 C.ar      1 <0>        -0.1534
      5 C4         -3.5833   -0.7556   -0.2871 C.ar      1 <0>        -0.0837
      6 C5         -3.5891   -2.1133   -0.0240 C.ar      1 <0>        -0.1415
      7 C6         -2.4060   -2.7702    0.2593 C.ar      1 <0>        -0.0793
      8 C7         -1.2145   -2.0714    0.2799 C.ar      1 <0>        -0.1373
      9 C8          0.0693   -2.7829    0.6224 C.3       1 <0>        -0.0881
     10 C9          1.2289   -2.1513   -0.1482 C.3       1 <0>         0.1391
     11 C10         1.1792   -0.6529   -0.0127 C.2       1 <0>         0.5043
     12 O1          2.2121   -0.0251    0.0880 O.2       1 <0>        -0.4936
     13 N2          1.1257   -2.5112   -1.5645 N.am      1 <0>        -0.7191
     14 C11         2.2289   -2.5239   -2.3387 C.2       1 <0>         0.5842
     15 O2          3.3103   -2.2366   -1.8614 O.2       1 <0>        -0.4965
     16 C12         2.1253   -2.8851   -3.7605 C.2       1 <0>         0.0086
     17 C13         3.1620   -2.9393   -4.6369 C.2       1 <0>        -0.0947
     18 C14         2.6422   -3.3248   -5.8963 C.ar      1 <0>        -0.1225
     19 C15         3.2242   -3.5404   -7.1523 C.ar      1 <0>        -0.0574
     20 C16         2.4436   -3.9155   -8.2066 C.ar      1 <0>        -0.1483
     21 C17         1.0739   -4.0859   -8.0475 C.ar      1 <0>        -0.0824
     22 C18         0.4785   -3.8797   -6.8235 C.ar      1 <0>        -0.1357
     23 C19         1.2539   -3.4974   -5.7322 C.ar      1 <0>         0.1171
     24 N3          0.9592   -3.2291   -4.4165 N.pl3     1 <0>        -0.5802
     25 H1          0.0771   -3.2720   -4.0152 H         1 <0>         0.4158
     26 H2          1.0048    1.8381    0.0023 H         1 <0>         0.0966
     27 H3         -0.5450    1.8219   -0.8730 H         1 <0>         0.0700
     28 H4         -0.5280    1.8123    0.9069 H         1 <0>         0.0724
     29 H5         -2.3909    1.0070   -0.4806 H         1 <0>         0.1302
     30 H6         -4.5098   -0.2440   -0.5023 H         1 <0>         0.1296
     31 H7         -4.5196   -2.6614   -0.0396 H         1 <0>         0.1278
     32 H8         -2.4132   -3.8306    0.4644 H         1 <0>         0.1312
     33 H9          0.2563   -2.6984    1.6929 H         1 <0>         0.1045
     34 H10        -0.0158   -3.8352    0.3516 H         1 <0>         0.1022
     35 H11         2.1733   -2.5216    0.2508 H         1 <0>         0.1337
     36 H12         0.2634   -2.7402   -1.9452 H         1 <0>         0.4011
     37 H13         4.1970   -2.7266   -4.4132 H         1 <0>         0.1581
     38 H14         4.2879   -3.4097   -7.2858 H         1 <0>         0.1274
     39 H15         2.8945   -4.0811   -9.1739 H         1 <0>         0.1264
     40 H16         0.4703   -4.3828   -8.8925 H         1 <0>         0.1291
     41 H17        -0.5871   -4.0141   -6.7101 H         1 <0>         0.1232
@<TRIPOS>BOND
     1    1    2 1
     2    1   26 1
     3    1   27 1
     4    1   28 1
     5    2   11 am
     6    2    3 1
     7    3    8 ar
     8    3    4 ar
     9    4    5 ar
    10    4   29 1
    11    5    6 ar
    12    5   30 1
    13    6    7 ar
    14    6   31 1
    15    7    8 ar
    16    7   32 1
    17    8    9 1
    18    9   10 1
    19    9   33 1
    20    9   34 1
    21   10   11 1
    22   10   13 1
    23   10   35 1
    24   11   12 2
    25   13   14 am
    26   13   36 1
    27   14   15 2
    28   14   16 1
    29   16   24 1
    30   16   17 2
    31   17   18 1
    32   17   37 1
    33   18   23 ar
    34   18   19 ar
    35   19   20 ar
    36   19   38 1
    37   20   21 ar
    38   20   39 1
    39   21   22 ar
    40   21   40 1
    41   22   23 ar
    42   22   41 1
    43   23   24 1
    44   24   25 1
@<TRIPOS>MOLECULE
CHEMBL136218__1
   41    44     0     0     0
SMALL
USER_CHARGES

@<TRIPOS>ATOM
      1 C1         -0.0178    1.4608    0.0101 C.3       1 <0>         0.0664
      2 N1          0.0021   -0.0041    0.0020 N.am      1 <0>        -0.5521
      3 C2         -1.2031   -0.7117    0.0039 C.ar      1 <0>         0.1667
      4 C3         -2.3917   -0.0565    0.3017 C.ar      1 <0>        -0.1534
      5 C4         -3.5803   -0.7591    0.3180 C.ar      1 <0>        -0.0836
      6 C5         -3.5888   -2.1137    0.0393 C.ar      1 <0>        -0.1416
      7 C6         -2.4084   -2.7674   -0.2624 C.ar      1 <0>        -0.0793
      8 C7         -1.2173   -2.0681   -0.2876 C.ar      1 <0>        -0.1374
      9 C8          0.0630   -2.7755   -0.6510 C.3       1 <0>        -0.0884
     10 C9          1.2302   -2.1528    0.1153 C.3       1 <0>         0.1390
     11 C10         1.1792   -0.6529   -0.0127 C.2       1 <0>         0.5044
     12 O1          2.2100   -0.0239   -0.1263 O.2       1 <0>        -0.4936
     13 N2          1.1410   -2.5290    1.5283 N.am      1 <0>        -0.7185
     14 C11         2.2518   -2.5506    2.2913 C.2       1 <0>         0.5843
     15 O2          3.3285   -2.2578    1.8067 O.2       1 <0>        -0.4967
     16 C12         2.1623   -2.9282    3.7098 C.2       1 <0>         0.0085
     17 C13         3.2059   -2.9812    4.5782 C.2       1 <0>        -0.0946
     18 C14         2.6992   -3.3856    5.8369 C.ar      1 <0>        -0.1225
     19 C15         3.2927   -3.6095    7.0862 C.ar      1 <0>        -0.0573
     20 C16         2.5238   -4.0048    8.1417 C.ar      1 <0>        -0.1482
     21 C17         1.1549   -4.1886    7.9904 C.ar      1 <0>        -0.0823
     22 C18         0.5485   -3.9754    6.7729 C.ar      1 <0>        -0.1357
     23 C19         1.3117   -3.5707    5.6810 C.ar      1 <0>         0.1171
     24 N3          1.0027   -3.2798    4.3733 N.pl3     1 <0>        -0.5802
     25 H1          0.1166   -3.3176    3.9805 H         1 <0>         0.4158
     26 H2          1.0048    1.8381    0.0023 H         1 <0>         0.0966
     27 H3         -0.5450    1.8219   -0.8730 H         1 <0>         0.0722
     28 H4         -0.5280    1.8123    0.9069 H         1 <0>         0.0701
     29 H5         -2.3859    1.0011    0.5206 H         1 <0>         0.1302
     30 H6         -4.5045   -0.2502    0.5489 H         1 <0>         0.1296
     31 H7         -4.5191   -2.6620    0.0577 H         1 <0>         0.1278
     32 H8         -2.4177   -3.8254   -0.4789 H         1 <0>         0.1312
     33 H9         -0.0195   -3.8310   -0.3915 H         1 <0>         0.1021
     34 H10         0.2394   -2.6787   -1.7223 H         1 <0>         0.1044
     35 H11         2.1706   -2.5184   -0.2972 H         1 <0>         0.1334
     36 H12         0.2825   -2.7625    1.9148 H         1 <0>         0.4012
     37 H13         4.2369   -2.7554    4.3493 H         1 <0>         0.1581
     38 H14         4.3560   -3.4699    7.2132 H         1 <0>         0.1274
     39 H15         2.9835   -4.1768    9.1037 H         1 <0>         0.1264
     40 H16         0.5608   -4.5022    8.8360 H         1 <0>         0.1291
     41 H17        -0.5161   -4.1217    6.6652 H         1 <0>         0.1233
@<TRIPOS>BOND
     1    1    2 1
     2    1   26 1
     3    1   27 1
     4    1   28 1
     5    2   11 am
     6    2    3 1
     7    3    8 ar
     8    3    4 ar
     9    4    5 ar
    10    4   29 1
    11    5    6 ar
    12    5   30 1
    13    6    7 ar
    14    6   31 1
    15    7    8 ar
    16    7   32 1
    17    8    9 1
    18    9   10 1
    19    9   33 1
    20    9   34 1
    21   10   11 1
    22   10   13 1
    23   10   35 1
    24   11   12 2
    25   13   14 am
    26   13   36 1
    27   14   15 2
    28   14   16 1
    29   16   24 1
    30   16   17 2
    31   17   18 1
    32   17   37 1
    33   18   23 ar
    34   18   19 ar
    35   19   20 ar
    36   19   38 1
    37   20   21 ar
    38   20   39 1
    39   21   22 ar
    40   21   40 1
    41   22   23 ar
    42   22   41 1
    43   23   24 1
    44   24   25 1
@<TRIPOS>MOLECULE
CHEMBL136327
   41    44     0     0     0
SMALL
USER_CHARGES

@<TRIPOS>ATOM
      1 C1         -0.0166    1.3716    0.0096 C.ar      1 <0>        -0.1395
      2 C2          1.1788    2.0677    0.0019 C.ar      1 <0>        -0.0843
      3 C3          2.3651    1.3763   -0.0095 C.ar      1 <0>        -0.1623
      4 C4          2.3956   -0.0292   -0.0186 C.ar      1 <0>         0.1732
      5 C5          1.2015   -0.7173   -0.0154 C.ar      1 <0>        -0.1182
      6 C6          0.0021   -0.0041    0.0020 C.ar      1 <0>        -0.0873
      7 C7          1.0649   -2.2051   -0.0381 C.3       1 <0>        -0.0768
      8 C8          2.0885   -2.9406   -0.8455 C.3       1 <0>        -0.1285
      9 C9          3.4244   -3.0648   -0.1533 C.3       1 <0>         0.1397
     10 C10         4.1625   -1.7746   -0.1357 C.2       1 <0>         0.5096
     11 O1          5.3682   -1.8408   -0.2489 O.2       1 <0>        -0.5192
     12 N1          3.6561   -0.5806   -0.0124 N.am      1 <0>        -0.6438
     13 N2          4.2324   -4.0668   -0.8527 N.am      1 <0>        -0.7131
     14 C11         5.2091   -4.7231   -0.1956 C.2       1 <0>         0.5971
     15 O2          5.4198   -4.4834    0.9783 O.2       1 <0>        -0.5035
     16 C12         6.0203   -5.7289   -0.8977 C.2       1 <0>         0.0209
     17 C13         7.0248   -6.4571   -0.3438 C.2       1 <0>        -0.0947
     18 C14         7.5472   -7.3060   -1.3494 C.ar      1 <0>        -0.1105
     19 C15         8.5728   -8.2604   -1.3654 C.ar      1 <0>        -0.0474
     20 C16         8.8524   -8.9374   -2.5176 C.ar      1 <0>        -0.0610
     21 C17         8.1279   -8.6886   -3.6779 C.ar      1 <0>        -0.0777
     22 C18         7.1160   -7.7553   -3.6866 C.ar      1 <0>        -0.1177
     23 C19         6.8120   -7.0526   -2.5237 C.ar      1 <0>         0.1175
     24 N3          5.8785   -6.0882   -2.2240 N.pl3     1 <0>        -0.5762
     25 H1          5.2291   -5.7191   -2.8429 H         1 <0>         0.4183
     26 Cl1        10.1242  -10.1188   -2.5343 Cl        1 <0>        -0.0686
     27 H2         -0.9564    1.9034    0.0259 H         1 <0>         0.1286
     28 H3          1.1790    3.1477    0.0045 H         1 <0>         0.1307
     29 H4          3.2956    1.9245   -0.0119 H         1 <0>         0.1273
     30 H5         -0.9330   -0.5444    0.0097 H         1 <0>         0.1278
     31 H6          1.1157   -2.5677    0.9886 H         1 <0>         0.0804
     32 H7          0.0789   -2.4508   -0.4324 H         1 <0>         0.0909
     33 H8          1.7117   -3.9408   -1.0593 H         1 <0>         0.0941
     34 H9          2.2319   -2.4152   -1.7897 H         1 <0>         0.0749
     35 H10         3.2628   -3.3950    0.8729 H         1 <0>         0.1256
     36 H11         4.3435    0.0915    0.1163 H         1 <0>         0.3999
     37 H12         4.0645   -4.2579   -1.7887 H         1 <0>         0.4000
     38 H13         7.3642   -6.3985    0.6798 H         1 <0>         0.1610
     39 H14         9.1410   -8.4598   -0.4688 H         1 <0>         0.1386
     40 H15         8.3614   -9.2326   -4.5812 H         1 <0>         0.1401
     41 H16         6.5593   -7.5686   -4.5931 H         1 <0>         0.1338
@<TRIPOS>BOND
     1    1    6 ar
     2    1    2 ar
     3    1   27 1
     4    2    3 ar
     5    2   28 1
     6    3    4 ar
     7    3   29 1
     8    4   12 1
     9    4    5 ar
    10    5    6 ar
    11    5    7 1
    12    6   30 1
    13    7    8 1
    14    7   31 1
    15    7   32 1
    16    8    9 1
    17    8   33 1
    18    8   34 1
    19    9   10 1
    20    9   13 1
    21    9   35 1
    22   10   11 2
    23   10   12 am
    24   12   36 1
    25   13   14 am
    26   13   37 1
    27   14   15 2
    28   14   16 1
    29   16   24 1
    30   16   17 2
    31   17   18 1
    32   17   38 1
    33   18   23 ar
    34   18   19 ar
    35   19   20 ar
    36   19   39 1
    37   20   21 ar
    38   20   26 1
    39   21   22 ar
    40   21   40 1
    41   22   23 ar
    42   22   41 1
    43   23   24 1
    44   24   25 1
@<TRIPOS>MOLECULE
CHEMBL136327__1
   41    44     0     0     0
SMALL
USER_CHARGES

@<TRIPOS>ATOM
      1 C1         -0.0166    1.3715    0.0096 C.ar      1 <0>        -0.1395
      2 C2          1.1788    2.0677    0.0019 C.ar      1 <0>        -0.0843
      3 C3          2.3650    1.3763   -0.0168 C.ar      1 <0>        -0.1624
      4 C4          2.3956   -0.0291   -0.0238 C.ar      1 <0>         0.1732
      5 C5          1.2015   -0.7172   -0.0115 C.ar      1 <0>        -0.1181
      6 C6          0.0021   -0.0041    0.0020 C.ar      1 <0>        -0.0872
      7 C7          1.0653   -2.2052   -0.0026 C.3       1 <0>        -0.0768
      8 C8          2.1042   -2.9495    0.7767 C.3       1 <0>        -0.1285
      9 C9          3.4265   -3.0659    0.0575 C.3       1 <0>         0.1397
     10 C10         4.1642   -1.7755    0.0400 C.2       1 <0>         0.5096
     11 O1          5.3719   -1.8428    0.1286 O.2       1 <0>        -0.5192
     12 N1          3.6557   -0.5802   -0.0604 N.am      1 <0>        -0.6438
     13 N2          4.2477   -4.0755    0.7302 N.am      1 <0>        -0.7132
     14 C11         5.2116   -4.7244    0.0472 C.2       1 <0>         0.5972
     15 O2          5.3996   -4.4717   -1.1278 O.2       1 <0>        -0.5035
     16 C12         6.0359   -5.7378    0.7225 C.2       1 <0>         0.0208
     17 C13         7.0373   -6.4514    0.1443 C.2       1 <0>        -0.0947
     18 C14         7.5758   -7.3146    1.1291 C.ar      1 <0>        -0.1104
     19 C15         8.6057   -8.2644    1.1164 C.ar      1 <0>        -0.0474
     20 C16         8.9018   -8.9599    2.2534 C.ar      1 <0>        -0.0610
     21 C17         8.1900   -8.7346    3.4263 C.ar      1 <0>        -0.0777
     22 C18         7.1736   -7.8067    3.4628 C.ar      1 <0>        -0.1177
     23 C19         6.8536   -7.0848    2.3162 C.ar      1 <0>         0.1176
     24 N3          5.9197   -6.1117    2.0472 N.pl3     1 <0>        -0.5762
     25 H1          5.2824   -5.7496    2.6824 H         1 <0>         0.4183
     26 Cl1        10.1781  -10.1366    2.2342 Cl        1 <0>        -0.0686
     27 H2         -0.9564    1.9033    0.0259 H         1 <0>         0.1286
     28 H3          1.1790    3.1477    0.0102 H         1 <0>         0.1307
     29 H4          3.2954    1.9246   -0.0267 H         1 <0>         0.1273
     30 H5         -0.9330   -0.5444    0.0063 H         1 <0>         0.1278
     31 H6          0.0870   -2.4554    0.4081 H         1 <0>         0.0909
     32 H7          1.0962   -2.5565   -1.0339 H         1 <0>         0.0804
     33 H8          2.2659   -2.4346    1.7236 H         1 <0>         0.0749
     34 H9          1.7315   -3.9520    0.9867 H         1 <0>         0.0941
     35 H10         3.2451   -3.3848   -0.9689 H         1 <0>         0.1256
     36 H11         4.3405    0.0932   -0.1960 H         1 <0>         0.4000
     37 H12         4.0978   -4.2769    1.6671 H         1 <0>         0.4000
     38 H13         7.3635   -6.3745   -0.8823 H         1 <0>         0.1610
     39 H14         9.1636   -8.4462    0.2097 H         1 <0>         0.1387
     40 H15         8.4365   -9.2930    4.3172 H         1 <0>         0.1401
     41 H16         6.6260   -7.6393    4.3785 H         1 <0>         0.1339
@<TRIPOS>BOND
     1    1    6 ar
     2    1    2 ar
     3    1   27 1
     4    2    3 ar
     5    2   28 1
     6    3    4 ar
     7    3   29 1
     8    4   12 1
     9    4    5 ar
    10    5    6 ar
    11    5    7 1
    12    6   30 1
    13    7    8 1
    14    7   31 1
    15    7   32 1
    16    8    9 1
    17    8   33 1
    18    8   34 1
    19    9   10 1
    20    9   13 1
    21    9   35 1
    22   10   11 2
    23   10   12 am
    24   12   36 1
    25   13   14 am
    26   13   37 1
    27   14   15 2
    28   14   16 1
    29   16   24 1
    30   16   17 2
    31   17   18 1
    32   17   38 1
    33   18   23 ar
    34   18   19 ar
    35   19   20 ar
    36   19   39 1
    37   20   21 ar
    38   20   26 1
    39   21   22 ar
    40   21   40 1
    41   22   23 ar
    42   22   41 1
    43   23   24 1
    44   24   25 1
@<TRIPOS>MOLECULE
CHEMBL114846
   47    48     0     0     0
SMALL
USER_CHARGES

@<TRIPOS>ATOM
      1 C1          2.9053   -2.8763    2.0518 C.3       1 <0>        -0.1654
      2 C2          1.7045   -2.7569    1.1111 C.3       1 <0>         0.1124
      3 N1          2.1692   -2.7699   -0.2781 N.am      1 <0>        -0.7205
      4 C3          1.2805   -2.6755   -1.2869 C.2       1 <0>         0.5673
      5 O1          0.0927   -2.5795   -1.0440 O.2       1 <0>        -0.5074
      6 C4          1.7472   -2.6886   -2.6819 C.2       1 <0>        -0.0689
      7 C5          2.0932   -3.8341   -3.2378 C.2       1 <0>        -0.0339
      8 N2          2.5558   -3.9658   -4.5345 N.4       1 <0>        -0.2218
      9 C6          2.2196   -2.9084   -5.3611 C.2       1 <0>        -0.2277
     10 C7          1.8771   -1.6972   -4.9216 C.2       1 <0>         0.0109
     11 C8          1.8149   -1.3959   -3.4497 C.3       1 <0>         0.0030
     12 C9          3.0499   -0.6333   -3.0444 C.ar      1 <0>        -0.0696
     13 C10         3.0833    0.0361   -1.8354 C.ar      1 <0>        -0.0982
     14 C11         4.2160    0.7356   -1.4634 C.ar      1 <0>        -0.1236
     15 C12         5.3161    0.7662   -2.3003 C.ar      1 <0>        -0.1033
     16 C13         5.2839    0.0974   -3.5092 C.ar      1 <0>        -0.1136
     17 C14         4.1524   -0.6077   -3.8795 C.ar      1 <0>        -0.0245
     18 Cl1         4.1135   -1.4535   -5.3950 Cl        1 <0>         0.0300
     19 C15         1.5485   -0.6356   -5.8954 C.2       1 <0>         0.5601
     20 O2          0.4284   -0.5773   -6.3813 O.co2     1 <0>        -0.6645
     21 O3          2.3969    0.1844   -6.2152 O.co2     1 <0>        -0.6561
     22 C16         2.2418   -3.1354   -6.8209 C.2       1 <0>         0.5341
     23 O4          2.0804   -2.1974   -7.5879 O.co2     1 <0>        -0.5840
     24 O5          2.4216   -4.2614   -7.2617 O.co2     1 <0>        -0.7011
     25 C17         4.0195   -4.0857   -4.4996 C.3       1 <0>        -0.0149
     26 C18         4.5384   -4.4083   -5.9023 C.3       1 <0>        -0.1685
     27 C19         1.9771   -5.0834   -2.4030 C.3       1 <0>        -0.1323
     28 H1          3.4308   -3.8104    1.8532 H         1 <0>         0.0622
     29 H2          3.5809   -2.0371    1.8868 H         1 <0>         0.0646
     30 H3          2.5595   -2.8667    3.0854 H         1 <0>         0.0762
     31 H4          1.0288   -3.5961    1.2761 H         1 <0>         0.0715
     32 H5          1.1789   -1.8228    1.3097 H         1 <0>         0.0727
     33 H6          3.1166   -2.8464   -0.4719 H         1 <0>         0.4045
     34 H7          0.9292   -0.7978   -3.2352 H         1 <0>         0.1312
     35 H8          2.2241    0.0128   -1.1814 H         1 <0>         0.1247
     36 H9          4.2415    1.2587   -0.5189 H         1 <0>         0.1268
     37 H10         6.2007    1.3132   -2.0093 H         1 <0>         0.1291
     38 H11         6.1432    0.1217   -4.1630 H         1 <0>         0.1339
     39 H12         4.4531   -3.1453   -4.1592 H         1 <0>         0.1180
     40 H13         4.3023   -4.8852   -3.8148 H         1 <0>         0.1051
     41 H14         5.6245   -4.4973   -5.8764 H         1 <0>         0.0718
     42 H15         4.1048   -5.3487   -6.2427 H         1 <0>         0.0879
     43 H16         4.2556   -3.6089   -6.5871 H         1 <0>         0.0988
     44 H17         1.5491   -4.8333   -1.4323 H         1 <0>         0.0937
     45 H18         1.3322   -5.8008   -2.9105 H         1 <0>         0.0943
     46 H19         2.9660   -5.5198   -2.2625 H         1 <0>         0.0915
     47 H20         2.1759   -4.8142   -4.9269 H         1 <0>         0.4240
@<TRIPOS>BOND
     1    1    2 1
     2    1   28 1
     3    1   29 1
     4    1   30 1
     5    2    3 1
     6    2   31 1
     7    2   32 1
     8    3    4 am
     9    3   33 1
    10    4    5 2
    11    4    6 1
    12    6   11 1
    13    6    7 2
    14    7    8 1
    15    7   27 1
    16    8    9 1
    17    8   25 1
    18    8   47 1
    19    9   10 2
    20    9   22 1
    21   10   11 1
    22   10   19 1
    23   11   12 1
    24   11   34 1
    25   12   17 ar
    26   12   13 ar
    27   13   14 ar
    28   13   35 1
    29   14   15 ar
    30   14   36 1
    31   15   16 ar
    32   15   37 1
    33   16   17 ar
    34   16   38 1
    35   17   18 1
    36   19   20 2
    37   19   21 1
    38   22   23 2
    39   22   24 1
    40   25   26 1
    41   25   39 1
    42   25   40 1
    43   26   41 1
    44   26   42 1
    45   26   43 1
    46   27   44 1
    47   27   45 1
    48   27   46 1
@<TRIPOS>MOLECULE
CHEMBL114846__1
   46    47     0     0     0
SMALL
USER_CHARGES

@<TRIPOS>ATOM
      1 C1         -2.5376   -1.0926    0.3063 C.3       1 <0>        -0.1612
      2 C2         -1.0246   -1.1509    0.0870 C.3       1 <0>         0.1150
      3 N1         -0.3741   -1.6503    1.3010 N.am      1 <0>        -0.7353
      4 C3          0.9662   -1.7866    1.3400 C.2       1 <0>         0.6055
      5 O1          1.6364   -1.4947    0.3663 O.2       1 <0>        -0.5520
      6 C4          1.5952   -2.2695    2.5139 C.2       1 <0>        -0.3241
      7 C5          1.6209   -3.5918    2.7464 C.2       1 <0>         0.1941
      8 N2          2.2262   -4.0975    3.8638 N.pl3     1 <0>        -0.5002
      9 C6          3.1188   -3.3289    4.5752 C.2       1 <0>         0.0234
     10 C7          3.1520   -1.9867    4.4149 C.2       1 <0>        -0.1714
     11 C8          2.2222   -1.2902    3.4646 C.3       1 <0>         0.0794
     12 C9          1.1384   -0.6023    4.2541 C.ar      1 <0>        -0.0188
     13 C10         0.2882   -1.3441    5.0527 C.ar      1 <0>        -0.0827
     14 C11        -0.7059   -0.7133    5.7770 C.ar      1 <0>        -0.1220
     15 C12        -0.8505    0.6597    5.7031 C.ar      1 <0>        -0.1301
     16 C13        -0.0011    1.4023    4.9051 C.ar      1 <0>        -0.1184
     17 C14         0.9979    0.7721    4.1843 C.ar      1 <0>        -0.0253
     18 Cl1         2.0695    1.7049    3.1867 Cl        1 <0>        -0.0748
     19 C15         4.1183   -1.1966    5.1801 C.2       1 <0>         0.5745
     20 O2          5.2455   -1.0137    4.7389 O.co2     1 <0>        -0.7060
     21 O3          3.7990   -0.7188    6.2610 O.co2     1 <0>        -0.7011
     22 C16         4.0533   -3.9791    5.5276 C.2       1 <0>         0.5278
     23 O4          4.8126   -3.2977    6.1997 O.co2     1 <0>        -0.6221
     24 O5          4.0631   -5.1957    5.6394 O.co2     1 <0>        -0.7090
     25 C17         1.9231   -5.4612    4.3047 C.3       1 <0>         0.1283
     26 C18         2.8978   -6.4390    3.6454 C.3       1 <0>        -0.1607
     27 C19         0.9733   -4.5318    1.7626 C.3       1 <0>        -0.1225
     28 H1         -2.7587   -0.4239    1.1382 H         1 <0>         0.0607
     29 H2         -3.0216   -0.7210   -0.5970 H         1 <0>         0.0651
     30 H3         -2.9106   -2.0912    0.5338 H         1 <0>         0.0581
     31 H4         -0.8035   -1.8196   -0.7450 H         1 <0>         0.0588
     32 H5         -0.6516   -0.1523   -0.1406 H         1 <0>         0.0605
     33 H6         -0.9080   -1.8829    2.0767 H         1 <0>         0.3979
     34 H7          2.7789   -0.5450    2.8964 H         1 <0>         0.0778
     35 H8          0.4004   -2.4167    5.1105 H         1 <0>         0.1228
     36 H9         -1.3702   -1.2933    6.4005 H         1 <0>         0.1169
     37 H10        -1.6276    1.1520    6.2690 H         1 <0>         0.1180
     38 H11        -0.1143    2.4748    4.8473 H         1 <0>         0.1207
     39 H12         2.0233   -5.5234    5.3883 H         1 <0>         0.0986
     40 H13         0.9028   -5.7171    4.0190 H         1 <0>         0.0455
     41 H14         3.9181   -6.1831    3.9311 H         1 <0>         0.0979
     42 H15         2.6722   -7.4537    3.9735 H         1 <0>         0.0437
     43 H16         2.7975   -6.3768    2.5618 H         1 <0>         0.0274
     44 H17         1.7243   -4.9003    1.0638 H         1 <0>         0.0753
     45 H18         0.5327   -5.3722    2.2990 H         1 <0>         0.0727
     46 H19         0.1945   -4.0028    1.2133 H         1 <0>         0.0714
@<TRIPOS>BOND
     1    1    2 1
     2    1   28 1
     3    1   29 1
     4    1   30 1
     5    2    3 1
     6    2   31 1
     7    2   32 1
     8    3    4 am
     9    3   33 1
    10    4    5 2
    11    4    6 1
    12    6   11 1
    13    6    7 2
    14    7    8 1
    15    7   27 1
    16    8    9 1
    17    8   25 1
    18    9   10 2
    19    9   22 1
    20   10   11 1
    21   10   19 1
    22   11   12 1
    23   11   34 1
    24   12   17 ar
    25   12   13 ar
    26   13   14 ar
    27   13   35 1
    28   14   15 ar
    29   14   36 1
    30   15   16 ar
    31   15   37 1
    32   16   17 ar
    33   16   38 1
    34   17   18 1
    35   19   20 2
    36   19   21 1
    37   22   23 2
    38   22   24 1
    39   25   26 1
    40   25   39 1
    41   25   40 1
    42   26   41 1
    43   26   42 1
    44   26   43 1
    45   27   44 1
    46   27   45 1
    47   27   46 1
@<TRIPOS>MOLECULE
CHEMBL114846__2
   47    48     0     0     0
SMALL
USER_CHARGES

@<TRIPOS>ATOM
      1 C1          1.5441   -0.4692    1.9628 C.3       1 <0>        -0.1668
      2 C2          0.7035   -0.4247    0.6852 C.3       1 <0>         0.1134
      3 N1          1.3817   -1.1787   -0.3721 N.am      1 <0>        -0.7226
      4 C3          0.8224   -1.2771   -1.5944 C.2       1 <0>         0.5660
      5 O1         -0.2452   -0.7400   -1.8196 O.2       1 <0>        -0.5039
      6 C4          1.5034   -2.0342   -2.6560 C.2       1 <0>        -0.0590
      7 C5          1.4816   -3.3532   -2.6260 C.2       1 <0>        -0.0520
      8 N2          2.0765   -4.1668   -3.5731 N.4       1 <0>        -0.2358
      9 C6          3.0679   -3.5413   -4.3081 C.2       1 <0>        -0.1362
     10 C7          3.1811   -2.2190   -4.4352 C.2       1 <0>        -0.0765
     11 C8          2.2064   -1.2895   -3.7589 C.3       1 <0>         0.0071
     12 C9          1.1932   -0.7979   -4.7603 C.ar      1 <0>        -0.0428
     13 C10         0.3838   -1.7003   -5.4247 C.ar      1 <0>        -0.0953
     14 C11        -0.5456   -1.2495   -6.3432 C.ar      1 <0>        -0.1131
     15 C12        -0.6663    0.1040   -6.5980 C.ar      1 <0>        -0.1062
     16 C13         0.1424    1.0071   -5.9344 C.ar      1 <0>        -0.1106
     17 C14         1.0690    0.5569   -5.0106 C.ar      1 <0>        -0.0005
     18 Cl1         2.0806    1.6912   -4.1717 Cl        1 <0>        -0.0511
     19 C15         4.2747   -1.6576   -5.2549 C.2       1 <0>         0.5164
     20 O2          5.0011   -2.4019   -5.8973 O.co2     1 <0>        -0.6099
     21 O3          4.4530   -0.4488   -5.2908 O.co2     1 <0>        -0.6706
     22 C16         4.0630   -4.3913   -4.9941 C.2       1 <0>         0.5740
     23 O4          5.1360   -4.6294   -4.4591 O.co2     1 <0>        -0.6466
     24 O5          3.8131   -4.8564   -6.0966 O.co2     1 <0>        -0.6600
     25 C17         2.6618   -5.3288   -2.8910 C.3       1 <0>        -0.0007
     26 C18         3.7212   -4.8547   -1.8941 C.3       1 <0>        -0.1798
     27 C19         0.7601   -4.0180   -1.4821 C.3       1 <0>        -0.1347
     28 H1          1.6703   -1.5047    2.2788 H         1 <0>         0.0628
     29 H2          2.5213   -0.0264    1.7704 H         1 <0>         0.0655
     30 H3          1.0395    0.0918    2.7494 H         1 <0>         0.0763
     31 H4         -0.2737   -0.8675    0.8776 H         1 <0>         0.0710
     32 H5          0.5773    0.6108    0.3692 H         1 <0>         0.0726
     33 H6          2.2332   -1.6071   -0.1924 H         1 <0>         0.4057
     34 H7          2.7466   -0.4410   -3.3389 H         1 <0>         0.1358
     35 H8          0.4778   -2.7577   -5.2263 H         1 <0>         0.1084
     36 H9         -1.1775   -1.9549   -6.8623 H         1 <0>         0.1292
     37 H10        -1.3924    0.4556   -7.3160 H         1 <0>         0.1317
     38 H11         0.0482    2.0644   -6.1337 H         1 <0>         0.1344
     39 H12         1.8792   -5.8703   -2.3595 H         1 <0>         0.1144
     40 H13         3.1238   -5.9872   -3.6266 H         1 <0>         0.1374
     41 H14         4.2136   -5.7192   -1.4487 H         1 <0>         0.0905
     42 H15         4.4597   -4.2430   -2.4123 H         1 <0>         0.1126
     43 H16         3.2451   -4.2643   -1.1113 H         1 <0>         0.0576
     44 H17         0.2652   -3.2600   -0.8750 H         1 <0>         0.0926
     45 H18         0.0164   -4.7111   -1.8753 H         1 <0>         0.0895
     46 H19         1.4769   -4.5639   -0.8686 H         1 <0>         0.0985
     47 H20         1.3643   -4.4953   -4.2079 H         1 <0>         0.4113
@<TRIPOS>BOND
     1    1    2 1
     2    1   28 1
     3    1   29 1
     4    1   30 1
     5    2    3 1
     6    2   31 1
     7    2   32 1
     8    3    4 am
     9    3   33 1
    10    4    5 2
    11    4    6 1
    12    6   11 1
    13    6    7 2
    14    7    8 1
    15    7   27 1
    16    8    9 1
    17    8   25 1
    18    8   47 1
    19    9   10 2
    20    9   22 1
    21   10   11 1
    22   10   19 1
    23   11   12 1
    24   11   34 1
    25   12   17 ar
    26   12   13 ar
    27   13   14 ar
    28   13   35 1
    29   14   15 ar
    30   14   36 1
    31   15   16 ar
    32   15   37 1
    33   16   17 ar
    34   16   38 1
    35   17   18 1
    36   19   20 2
    37   19   21 1
    38   22   23 2
    39   22   24 1
    40   25   26 1
    41   25   39 1
    42   25   40 1
    43   26   41 1
    44   26   42 1
    45   26   43 1
    46   27   44 1
    47   27   45 1
    48   27   46 1
