@<TRIPOS>MOLECULE
ZINC09125209
   63    67     0     0     0
SMALL
USER_CHARGES
2-[(4-benzothiazol-2-yl-1-piperidyl)methyl]-1-butyl-benzoimidazole-5-sulfonamide
@<TRIPOS>ATOM
      1 C1         -0.6006   -2.3425    2.4895 C.3       1 <0>        -0.1570
      2 C2         -1.2875   -1.2987    3.3724 C.3       1 <0>        -0.1216
      3 C3         -0.4490   -0.0192    3.3957 C.3       1 <0>        -0.1407
      4 C4         -1.1358    1.0246    4.2787 C.3       1 <0>         0.0976
      5 N1         -0.2839    2.2118    4.3842 N.pl3     1 <0>        -0.4772
      6 C5          0.7319    2.4115    5.2975 C.ar      1 <0>         0.1185
      7 C6          1.2627    1.6554    6.3339 C.ar      1 <0>        -0.1277
      8 C7          2.3026    2.1608    7.0846 C.ar      1 <0>         0.0019
      9 C8          2.8208    3.4188    6.8114 C.ar      1 <0>        -0.6780
     10 C9          2.3114    4.1766    5.7954 C.ar      1 <0>         0.0704
     11 C10         1.2572    3.6850    5.0210 C.ar      1 <0>         0.0155
     12 N2          0.5539    4.1836    3.9720 N.2       1 <0>        -0.4270
     13 C11        -0.3448    3.3203    3.5979 C.2       1 <0>         0.1977
     14 C12        -1.3158    3.5216    2.4632 C.3       1 <0>         0.0894
     15 C13        -2.3924    5.4698    3.4149 C.3       1 <0>        -0.0007
     16 C14        -3.6755    5.9677    4.0842 C.3       1 <0>        -0.1424
     17 C15        -4.8372    5.8639    3.0921 C.3       1 <0>        -0.0058
     18 C16        -4.9710    4.4119    2.6250 C.3       1 <0>        -0.1436
     19 C17        -3.6507    3.9594    1.9972 C.3       1 <0>         0.0012
     20 C18        -6.1141    6.2977    3.7647 C.2       1 <0>         0.1070
     21 N3         -6.9103    7.2752    3.4342 N.2       1 <0>        -0.4810
     22 C19        -8.0331    7.5609    4.1258 C.ar      1 <0>         0.0635
     23 C20        -8.9871    8.5766    3.8946 C.ar      1 <0>        -0.0500
     24 C21       -10.0686    8.7121    4.7087 C.ar      1 <0>        -0.1081
     25 C22       -10.2772    7.8659    5.7891 C.ar      1 <0>        -0.0756
     26 C23        -9.3664    6.8593    6.0489 C.ar      1 <0>        -0.0728
     27 C24        -8.2708    6.7146    5.2328 C.ar      1 <0>        -0.1356
     28 S1         -6.8827    5.6106    5.1618 S.3       1 <0>         0.0238
     29 S2          4.1497    4.0447    7.7845 S.o2      1 <0>         2.7036
     30 O1          4.0945    5.4611    7.6842 O.2       1 <0>        -0.9546
     31 O2          4.0941    3.3666    9.0320 O.2       1 <0>        -0.9491
     32 N4          5.5578    3.5728    7.0517 N.pl3     1 <0>        -1.2454
     33 H1          0.3885   -2.5636    2.8906 H         1 <0>         0.0586
     34 H2         -1.1980   -3.2541    2.4728 H         1 <0>         0.0641
     35 H3         -0.5031   -1.9536    1.4759 H         1 <0>         0.0563
     36 H4         -1.3850   -1.6877    4.3860 H         1 <0>         0.0705
     37 H5         -2.2766   -1.0777    2.9713 H         1 <0>         0.0661
     38 H6         -0.3514    0.3698    2.3822 H         1 <0>         0.0722
     39 H7          0.5401   -0.2402    3.7969 H         1 <0>         0.0794
     40 H8         -1.3023    0.6075    5.2719 H         1 <0>         0.1086
     41 H9         -2.0925    1.3021    3.8361 H         1 <0>         0.0879
     42 H10         0.8630    0.6758    6.5507 H         1 <0>         0.1414
     43 H11         2.7165    1.5738    7.8911 H         1 <0>         0.1597
     44 H12         2.7225    5.1542    5.5911 H         1 <0>         0.1588
     45 H13        -1.5147    2.5645    1.9811 H         1 <0>         0.1499
     46 H14        -0.8877    4.2124    1.7369 H         1 <0>         0.1698
     47 H15        -2.1710    6.0909    2.5470 H         1 <0>         0.1439
     48 H16        -1.5666    5.5289    4.1238 H         1 <0>         0.1384
     49 H17        -3.5480    7.0068    4.3878 H         1 <0>         0.1240
     50 H18        -3.8897    5.3562    4.9606 H         1 <0>         0.0924
     51 H19        -4.6414    6.5062    2.2334 H         1 <0>         0.1263
     52 H20        -5.2053    3.7753    3.4782 H         1 <0>         0.0944
     53 H21        -5.7695    4.3393    1.8866 H         1 <0>         0.1254
     54 H22        -3.7380    2.9213    1.6764 H         1 <0>         0.1381
     55 H23        -3.4239    4.5878    1.1359 H         1 <0>         0.1440
     56 H24        -8.8568    9.2526    3.0625 H         1 <0>         0.1377
     57 H25       -10.7827    9.4973    4.5093 H         1 <0>         0.1422
     58 H26       -11.1438    7.9927    6.4210 H         1 <0>         0.1466
     59 H27        -9.5144    6.1929    6.8859 H         1 <0>         0.1392
     60 H28         6.3531    4.1225    7.1300 H         1 <0>         0.4262
     61 H29         5.5872    2.7467    6.5441 H         1 <0>         0.4180
     62 N5         -2.5782    4.0601    3.0102 N.4       1 <0>        -0.4000
     63 H30        -2.8460    3.5096    3.8345 H         1 <0>         0.4236
@<TRIPOS>BOND
     1    1    2 1
     2    1   33 1
     3    1   34 1
     4    1   35 1
     5    2    3 1
     6    2   36 1
     7    2   37 1
     8    3    4 1
     9    3   38 1
    10    3   39 1
    11    4    5 1
    12    4   40 1
    13    4   41 1
    14    5   13 1
    15    5    6 1
    16    6   11 ar
    17    6    7 ar
    18    7    8 ar
    19    7   42 1
    20    8    9 ar
    21    8   43 1
    22    9   10 ar
    23    9   29 1
    24   10   11 ar
    25   10   44 1
    26   11   12 1
    27   12   13 2
    28   13   14 1
    29   14   45 1
    30   14   46 1
    31   14   62 1
    32   15   16 1
    33   15   47 1
    34   15   48 1
    35   15   62 1
    36   16   17 1
    37   16   49 1
    38   16   50 1
    39   17   18 1
    40   17   20 1
    41   17   51 1
    42   18   19 1
    43   18   52 1
    44   18   53 1
    45   19   54 1
    46   19   55 1
    47   19   62 1
    48   20   28 1
    49   20   21 2
    50   21   22 1
    51   22   27 ar
    52   22   23 ar
    53   23   24 ar
    54   23   56 1
    55   24   25 ar
    56   24   57 1
    57   25   26 ar
    58   25   58 1
    59   26   27 ar
    60   26   59 1
    61   27   28 1
    62   29   30 2
    63   29   31 2
    64   29   32 1
    65   32   60 1
    66   32   61 1
    67   62   63 1
@<TRIPOS>MOLECULE
ZINC24030236
   60    64     0     0     0
SMALL
USER_CHARGES
N-(5-benzyl-6,7-dihydro-4H-thiazolo[5,4-c]pyridin-2-yl)-2-[(4S)-4-(4-fluorophenyl)-4-methyl-2,5-dioxo-imidazolidin-1-yl]acetamide
@<TRIPOS>ATOM
      1 C1          8.1011    6.1057  -12.0466 C.3       1 <0>        -0.1476
      2 C2          7.8344    6.1189  -10.5401 C.3       1 <0>         0.1611
      3 C3          6.3664    5.8697  -10.2561 C.2       1 <0>         0.5409
      4 O1          5.7236    4.8811  -10.5378 O.2       1 <0>        -0.4545
      5 N1          5.9246    6.9753   -9.6247 N.am      1 <0>        -0.5635
      6 C4          6.8981    7.8810   -9.4763 C.2       1 <0>         0.7213
      7 O2          6.7407    8.9603   -8.9401 O.2       1 <0>        -0.5356
      8 N2          8.0716    7.4620   -9.9835 N.am      1 <0>        -0.7237
      9 C5          4.5471    7.1646   -9.1635 C.3       1 <0>         0.1038
     10 C6          4.4144    6.6501   -7.7532 C.2       1 <0>         0.5001
     11 O3          5.3759    6.1724   -7.1890 O.2       1 <0>        -0.4485
     12 N3          3.2273    6.7209   -7.1190 N.am      1 <0>        -0.6308
     13 C7          3.1049    6.2464   -5.8182 C.2       1 <0>         0.3510
     14 N4          4.0227    5.6999   -5.0462 N.2       1 <0>        -0.5255
     15 C8          3.7544    5.2912   -3.8113 C.2       1 <0>         0.1304
     16 C9          2.4738    5.4677   -3.3877 C.2       1 <0>        -0.3286
     17 S1          1.7017    6.2221   -4.7914 S.3       1 <0>         0.1555
     18 C10         1.9058    5.1003   -2.0602 C.3       1 <0>         0.1138
     19 N5          2.8587    4.1942   -1.3882 N.4       1 <0>        -0.3974
     20 C11         4.2214    4.7412   -1.4437 C.3       1 <0>        -0.0002
     21 C12         4.7719    4.6555   -2.8699 C.3       1 <0>        -0.0720
     22 C13         2.4510    3.9366   -0.0006 C.3       1 <0>         0.0483
     23 C14         1.1563    3.1654    0.0076 C.ar      1 <0>        -0.1618
     24 C15         1.1750    1.7832    0.0004 C.ar      1 <0>        -0.0933
     25 C16        -0.0126    1.0758    0.0080 C.ar      1 <0>        -0.1131
     26 C17        -1.2190    1.7506    0.0173 C.ar      1 <0>        -0.0840
     27 C18        -1.2377    3.1328    0.0299 C.ar      1 <0>        -0.1137
     28 C19        -0.0501    3.8402    0.0228 C.ar      1 <0>        -0.0969
     29 C20         8.6911    5.0958   -9.8397 C.ar      1 <0>        -0.1071
     30 C21         8.1977    3.8259   -9.6052 C.ar      1 <0>        -0.0774
     31 C22         8.9842    2.8854   -8.9672 C.ar      1 <0>        -0.1477
     32 C23        10.2628    3.2187   -8.5535 C.ar      1 <0>         0.1114
     33 C24        10.7539    4.4926   -8.7843 C.ar      1 <0>        -0.1500
     34 C25         9.9675    5.4298   -9.4271 C.ar      1 <0>        -0.0655
     35 F1         11.0307    2.3016   -7.9256 F         1 <0>        -0.1343
     36 H1          7.9187    5.0957  -12.4424 H         1 <0>         0.0890
     37 H2          9.1465    6.3906  -12.2364 H         1 <0>         0.0878
     38 H3          7.4299    6.8213  -12.5441 H         1 <0>         0.0752
     39 H4          9.0731    7.9130  -10.0431 H         1 <0>         0.4729
     40 H5          4.2960    8.2353   -9.1884 H         1 <0>         0.1429
     41 H6          3.8608    6.6116   -9.8217 H         1 <0>         0.1401
     42 H7          2.3553    7.1542   -7.6308 H         1 <0>         0.4652
     43 H8          1.7599    6.0101   -1.4593 H         1 <0>         0.1391
     44 H9          0.9388    4.5956   -2.2021 H         1 <0>         0.1410
     45 H10         4.2068    5.7947   -1.1276 H         1 <0>         0.1333
     46 H11         4.8751    4.1658   -0.7717 H         1 <0>         0.1450
     47 H12         4.9266    3.6039   -3.1532 H         1 <0>         0.1125
     48 H13         5.7260    5.1984   -2.9405 H         1 <0>         0.1334
     49 H14         3.2305    3.3500    0.5077 H         1 <0>         0.1428
     50 H15         2.3113    4.8932    0.5242 H         1 <0>         0.1362
     51 H16         2.1175    1.2560   -0.0115 H         1 <0>         0.1321
     52 H17         0.0021   -0.0041    0.0020 H         1 <0>         0.1359
     53 H18        -2.1469    1.1980    0.0188 H         1 <0>         0.1355
     54 H19        -2.1802    3.6600    0.0414 H         1 <0>         0.1358
     55 H20        -0.0647    4.9201    0.0288 H         1 <0>         0.1303
     56 H21         7.1989    3.5674   -9.9243 H         1 <0>         0.1466
     57 H22         8.6001    1.8921   -8.7878 H         1 <0>         0.1402
     58 H23        11.7509    4.7538   -8.4617 H         1 <0>         0.1429
     59 H24        10.3505    6.4233   -9.6075 H         1 <0>         0.1337
     60 H25         2.8570    3.2312   -1.9199 H         1 <0>         0.4456
@<TRIPOS>BOND
     1    1    2 1
     2    1   36 1
     3    1   37 1
     4    1   38 1
     5    2    8 1
     6    2    3 1
     7    2   29 1
     8    3    4 2
     9    3    5 am
    10    5    6 am
    11    5    9 1
    12    6    7 2
    13    6    8 am
    14    8   39 1
    15    9   10 1
    16    9   40 1
    17    9   41 1
    18   10   11 2
    19   10   12 am
    20   12   13 1
    21   12   42 1
    22   13   17 1
    23   13   14 2
    24   14   15 1
    25   15   21 1
    26   15   16 2
    27   16   17 1
    28   16   18 1
    29   18   19 1
    30   18   43 1
    31   18   44 1
    32   19   20 1
    33   19   22 1
    34   19   60 1
    35   20   21 1
    36   20   45 1
    37   20   46 1
    38   21   47 1
    39   21   48 1
    40   22   23 1
    41   22   49 1
    42   22   50 1
    43   23   28 ar
    44   23   24 ar
    45   24   25 ar
    46   24   51 1
    47   25   26 ar
    48   25   52 1
    49   26   27 ar
    50   26   53 1
    51   27   28 ar
    52   27   54 1
    53   28   55 1
    54   29   34 ar
    55   29   30 ar
    56   30   31 ar
    57   30   56 1
    58   31   32 ar
    59   31   57 1
    60   32   33 ar
    61   32   35 1
    62   33   34 ar
    63   33   58 1
    64   34   59 1
@<TRIPOS>MOLECULE
ZINC32541193
   70    74     0     0     0
SMALL
USER_CHARGES

@<TRIPOS>ATOM
      1 C1         -0.0173    1.4248    0.0099 C.3       1 <0>         0.0251
      2 O1          0.0021   -0.0041    0.0020 O.3       1 <0>        -0.3166
      3 C2          0.6058   -0.6071   -1.0557 C.ar      1 <0>         0.1300
      4 C3          1.1731    0.1608   -2.0626 C.ar      1 <0>        -0.2002
      5 C4          1.7865   -0.4545   -3.1363 C.ar      1 <0>        -0.0762
      6 C5          1.8356   -1.8347   -3.2084 C.ar      1 <0>        -0.1514
      7 C6          1.2707   -2.6020   -2.2067 C.ar      1 <0>        -0.0595
      8 C7          0.6609   -1.9913   -1.1277 C.ar      1 <0>        -0.1288
      9 C8          1.3255   -4.1057   -2.2887 C.3       1 <0>         0.1013
     10 N1          2.5475   -4.5877   -1.6311 N.3       1 <0>        -0.6641
     11 C9          2.6350   -6.0529   -1.6916 C.3       1 <0>         0.0686
     12 H1          2.2104   -6.4292   -2.6224 H         1 <0>         0.0858
     13 C10         1.9445   -6.7020   -0.4633 C.3       1 <0>        -0.1243
     14 C11         2.6809   -8.0510   -0.3232 C.3       1 <0>        -0.0016
     15 H2          2.8283   -8.2852    0.7310 H         1 <0>         0.1693
     16 N2          3.9868   -7.9073   -0.9925 N.4       1 <0>        -0.3750
     17 C12         4.0986   -6.5291   -1.5169 C.3       1 <0>        -0.0098
     18 C13         5.0665   -8.1592   -0.0288 C.3       1 <0>         0.0472
     19 C14         6.3934   -8.1324   -0.7427 C.ar      1 <0>        -0.1619
     20 C15         6.9110   -9.2946   -1.2833 C.ar      1 <0>        -0.0905
     21 C16         8.1281   -9.2701   -1.9382 C.ar      1 <0>        -0.1133
     22 C17         8.8275   -8.0833   -2.0529 C.ar      1 <0>        -0.0832
     23 C18         8.3095   -6.9208   -1.5130 C.ar      1 <0>        -0.1146
     24 C19         7.0903   -6.9446   -0.8619 C.ar      1 <0>        -0.0940
     25 C20         1.8799   -9.1433   -0.9838 C.2       1 <0>         0.5077
     26 O2          2.3493   -9.7599   -1.9167 O.2       1 <0>        -0.5221
     27 N3          0.6420   -9.4350   -0.5378 N.am      1 <0>        -0.7013
     28 C21        -0.1366  -10.4969   -1.1799 C.3       1 <0>         0.1172
     29 C22        -1.4950  -10.6234   -0.4872 C.3       1 <0>        -0.0852
     30 C23        -2.2959  -11.7157   -1.1478 C.ar      1 <0>        -0.0857
     31 C24        -3.1212  -11.4163   -2.2157 C.ar      1 <0>        -0.1002
     32 C25        -3.8576  -12.4150   -2.8252 C.ar      1 <0>        -0.0978
     33 C26        -3.7702  -13.7193   -2.3663 C.ar      1 <0>         0.0394
     34 C27        -2.9388  -14.0209   -1.2905 C.ar      1 <0>         0.0364
     35 C28        -2.1994  -13.0159   -0.6881 C.ar      1 <0>        -0.0944
     36 O3         -3.0272  -15.3583   -1.0324 O.3       1 <0>        -0.3073
     37 C29        -4.2271  -15.7993   -1.6950 C.3       1 <0>         0.2125
     38 O4         -4.3793  -14.8678   -2.7824 O.3       1 <0>        -0.3059
     39 H3          1.0053    1.8021    0.0021 H         1 <0>         0.0578
     40 H4         -0.5445    1.7859   -0.8732 H         1 <0>         0.0583
     41 H5         -0.5275    1.7763    0.9067 H         1 <0>         0.1047
     42 H6          1.1347    1.2387   -2.0069 H         1 <0>         0.1312
     43 H7          2.2279    0.1427   -3.9204 H         1 <0>         0.1283
     44 H8          2.3157   -2.3139   -4.0487 H         1 <0>         0.1209
     45 H9          0.2237   -2.5911   -0.3432 H         1 <0>         0.1310
     46 H10         0.4535   -4.5288   -1.7900 H         1 <0>         0.0891
     47 H11         1.3304   -4.4127   -3.3346 H         1 <0>         0.0527
     48 H12         3.3677   -4.1596   -2.0337 H         1 <0>         0.3570
     49 H13         2.0880   -6.0903    0.4273 H         1 <0>         0.1265
     50 H14         0.8836   -6.8604   -0.6566 H         1 <0>         0.1126
     51 H15         4.6151   -6.5283   -2.4768 H         1 <0>         0.1369
     52 H16         4.6219   -5.8930   -0.8030 H         1 <0>         0.1443
     53 H17         5.0529   -7.3883    0.7418 H         1 <0>         0.1395
     54 H18         4.9216   -9.1362    0.4321 H         1 <0>         0.1359
     55 H19         6.3646  -10.2219   -1.1937 H         1 <0>         0.1313
     56 H20         8.5328  -10.1783   -2.3599 H         1 <0>         0.1362
     57 H21         9.7787   -8.0642   -2.5639 H         1 <0>         0.1357
     58 H22         8.8561   -5.9937   -1.6023 H         1 <0>         0.1361
     59 H23         6.6839   -6.0357   -0.4434 H         1 <0>         0.1307
     60 H24         0.2666   -8.9418    0.2084 H         1 <0>         0.4120
     61 H25        -0.2864  -10.2524   -2.2315 H         1 <0>         0.0839
     62 H26         0.4016  -11.4413   -1.0995 H         1 <0>         0.0833
     63 H27        -1.3452  -10.8678    0.5644 H         1 <0>         0.0868
     64 H28        -2.0331   -9.6789   -0.5676 H         1 <0>         0.0887
     65 H29        -3.1912  -10.4000   -2.5743 H         1 <0>         0.1389
     66 H30        -4.5015  -12.1782   -3.6594 H         1 <0>         0.1400
     67 H31        -1.5505  -13.2476    0.1435 H         1 <0>         0.1358
     68 H32        -4.1045  -16.8139   -2.0741 H         1 <0>         0.1369
     69 H33        -5.0806  -15.7423   -1.0195 H         1 <0>         0.0896
     70 H34         4.0524   -8.5661   -1.7539 H         1 <0>         0.4319
@<TRIPOS>BOND
     1    1    2 1
     2    1   39 1
     3    1   40 1
     4    1   41 1
     5    2    3 1
     6    3    8 ar
     7    3    4 ar
     8    4    5 ar
     9    4   42 1
    10    5    6 ar
    11    5   43 1
    12    6    7 ar
    13    6   44 1
    14    7    8 ar
    15    7    9 1
    16    8   45 1
    17    9   10 1
    18    9   46 1
    19    9   47 1
    20   10   11 1
    21   10   48 1
    22   11   12 1
    23   11   17 1
    24   11   13 1
    25   13   14 1
    26   13   49 1
    27   13   50 1
    28   14   15 1
    29   14   16 1
    30   14   25 1
    31   16   17 1
    32   16   18 1
    33   16   70 1
    34   17   51 1
    35   17   52 1
    36   18   19 1
    37   18   53 1
    38   18   54 1
    39   19   24 ar
    40   19   20 ar
    41   20   21 ar
    42   20   55 1
    43   21   22 ar
    44   21   56 1
    45   22   23 ar
    46   22   57 1
    47   23   24 ar
    48   23   58 1
    49   24   59 1
    50   25   26 2
    51   25   27 am
    52   27   28 1
    53   27   60 1
    54   28   29 1
    55   28   61 1
    56   28   62 1
    57   29   30 1
    58   29   63 1
    59   29   64 1
    60   30   35 ar
    61   30   31 ar
    62   31   32 ar
    63   31   65 1
    64   32   33 ar
    65   32   66 1
    66   33   38 1
    67   33   34 ar
    68   34   35 ar
    69   34   36 1
    70   35   67 1
    71   36   37 1
    72   37   38 1
    73   37   68 1
    74   37   69 1
@<TRIPOS>MOLECULE
ZINC39653847
   73    76     0     0     0
SMALL
USER_CHARGES

@<TRIPOS>ATOM
      1 C1          1.4824    1.3384    3.7662 C.3       1 <0>        -0.1552
      2 C2          1.3052   -0.1694    3.9562 C.3       1 <0>         0.0547
      3 O1          1.2422   -0.8064    2.6786 O.3       1 <0>        -0.3141
      4 C3          1.0852   -2.1562    2.6692 C.ar      1 <0>         0.1381
      5 C4          0.9878   -2.8527    3.8651 C.ar      1 <0>        -0.2086
      6 C5          0.8278   -4.2248    3.8529 C.ar      1 <0>        -0.0719
      7 C6          0.7650   -4.9040    2.6502 C.ar      1 <0>        -0.1334
      8 C7          0.8622   -4.2122    1.4570 C.ar      1 <0>        -0.0700
      9 C8          1.0162   -2.8394    1.4637 C.ar      1 <0>        -0.1488
     10 C9          0.5908   -6.4009    2.6399 C.3       1 <0>        -0.0807
     11 C10        -0.9008   -6.7406    2.6169 C.3       1 <0>         0.1194
     12 N1         -1.0701   -8.1957    2.6069 N.am      1 <0>        -0.7307
     13 C11        -2.3073   -8.7301    2.5865 C.2       1 <0>         0.5192
     14 O2         -3.2804   -8.0063    2.5765 O.2       1 <0>        -0.5162
     15 C12        -2.4815  -10.2269    2.5761 C.3       1 <0>        -0.1134
     16 H1         -1.7071  -10.6942    1.9678 H         1 <0>         0.1130
     17 C13        -3.8828  -10.6018    2.0440 C.3       1 <0>         0.1162
     18 N2         -4.2951  -11.7660    2.8630 N.am      1 <0>        -0.6227
     19 C14        -3.8168  -11.4439    4.2289 C.3       1 <0>         0.1004
     20 C15        -2.4424  -10.7805    4.0105 C.3       1 <0>        -0.0734
     21 C16        -2.2404   -9.6455    5.0097 C.3       1 <0>        -0.1485
     22 C17        -2.1463  -10.2265    6.4233 C.3       1 <0>        -0.0075
     23 N3         -1.0252  -11.1716    6.4924 N.4       1 <0>        -0.5045
     24 C18        -1.2721  -12.3076    5.5962 C.3       1 <0>        -0.0113
     25 C19        -1.3291  -11.8146    4.1476 C.3       1 <0>        -0.1348
     26 C20        -4.9554  -12.8688    2.4577 C.2       1 <0>         0.5882
     27 O3         -5.1962  -13.0338    1.2773 O.2       1 <0>        -0.4988
     28 C21        -5.3858  -13.8759    3.4462 C.ar      1 <0>        -0.1757
     29 C22        -5.8006  -13.4781    4.7195 C.ar      1 <0>        -0.0584
     30 C23        -6.2019  -14.4235    5.6380 C.ar      1 <0>        -0.1681
     31 C24        -6.1962  -15.7683    5.3048 C.ar      1 <0>        -0.0476
     32 C25        -5.7887  -16.1753    4.0501 C.ar      1 <0>        -0.2147
     33 C26        -5.3866  -15.2367    3.1113 C.ar      1 <0>         0.1894
     34 O4         -4.9908  -15.6347    1.8763 O.3       1 <0>        -0.2918
     35 C27        -5.0181  -17.0378    1.6071 C.3       1 <0>         0.0503
     36 C28        -4.5415  -17.2919    0.1756 C.3       1 <0>        -0.1531
     37 H2          1.5305    1.8243    4.7407 H         1 <0>         0.0812
     38 H3          2.4055    1.5296    3.2189 H         1 <0>         0.0683
     39 H4          0.6375    1.7354    3.2035 H         1 <0>         0.0683
     40 H5          2.1501   -0.5664    4.5189 H         1 <0>         0.0628
     41 H6          0.3822   -0.3606    4.5034 H         1 <0>         0.0627
     42 H7          1.0375   -2.3227    4.8048 H         1 <0>         0.1292
     43 H8          0.7519   -4.7674    4.7836 H         1 <0>         0.1213
     44 H9          0.8132   -4.7451    0.5189 H         1 <0>         0.1300
     45 H10         1.0876   -2.2990    0.5314 H         1 <0>         0.1341
     46 H11         1.0718   -6.8165    1.7544 H         1 <0>         0.0800
     47 H12         1.0465   -6.8259    3.5342 H         1 <0>         0.0740
     48 H13        -1.3818   -6.3249    3.5024 H         1 <0>         0.0728
     49 H14        -1.3565   -6.3156    1.7226 H         1 <0>         0.0757
     50 H15        -0.2919   -8.7746    2.6148 H         1 <0>         0.3990
     51 H16        -4.5769   -9.7733    2.1848 H         1 <0>         0.0995
     52 H17        -3.8281  -10.8782    0.9911 H         1 <0>         0.0968
     53 H18        -4.5013  -10.7509    4.7181 H         1 <0>         0.0860
     54 H19        -3.7094  -12.3540    4.8189 H         1 <0>         0.0887
     55 H20        -1.3195   -9.1123    4.7734 H         1 <0>         0.0997
     56 H21        -3.0841   -8.9576    4.9545 H         1 <0>         0.1240
     57 H22        -1.9852   -9.4192    7.1377 H         1 <0>         0.1394
     58 H23        -3.0739  -10.7453    6.6651 H         1 <0>         0.1330
     59 H24        -0.1753  -10.7041    6.2143 H         1 <0>         0.4281
     60 H25        -0.4666  -13.0345    5.7009 H         1 <0>         0.1399
     61 H26        -2.2206  -12.7769    5.8576 H         1 <0>         0.1329
     62 H27        -1.5304  -12.6560    3.4845 H         1 <0>         0.1190
     63 H28        -0.3753  -11.3599    3.8802 H         1 <0>         0.0971
     64 H29        -5.8064  -12.4309    4.9837 H         1 <0>         0.1315
     65 H30        -6.5221  -14.1149    6.6222 H         1 <0>         0.1319
     66 H31        -6.5120  -16.5027    6.0311 H         1 <0>         0.1339
     67 H32        -5.7870  -17.2254    3.7979 H         1 <0>         0.1386
     68 H33        -4.3605  -17.5547    2.3060 H         1 <0>         0.0645
     69 H34        -6.0359  -17.4103    1.7227 H         1 <0>         0.0677
     70 H35        -5.1991  -16.7750   -0.5234 H         1 <0>         0.0708
     71 H36        -3.5237  -16.9194    0.0600 H         1 <0>         0.0658
     72 H37        -4.5623  -18.3621   -0.0298 H         1 <0>         0.0830
     73 H38        -0.9273  -11.5067    7.4390 H         1 <0>         0.4341
@<TRIPOS>BOND
     1    1    2 1
     2    1   37 1
     3    1   38 1
     4    1   39 1
     5    2    3 1
     6    2   40 1
     7    2   41 1
     8    3    4 1
     9    4    9 ar
    10    4    5 ar
    11    5    6 ar
    12    5   42 1
    13    6    7 ar
    14    6   43 1
    15    7    8 ar
    16    7   10 1
    17    8    9 ar
    18    8   44 1
    19    9   45 1
    20   10   11 1
    21   10   46 1
    22   10   47 1
    23   11   12 1
    24   11   48 1
    25   11   49 1
    26   12   13 am
    27   12   50 1
    28   13   14 2
    29   13   15 1
    30   15   16 1
    31   15   20 1
    32   15   17 1
    33   17   18 1
    34   17   51 1
    35   17   52 1
    36   18   19 1
    37   18   26 am
    38   19   20 1
    39   19   53 1
    40   19   54 1
    41   20   25 1
    42   20   21 1
    43   21   22 1
    44   21   55 1
    45   21   56 1
    46   22   23 1
    47   22   57 1
    48   22   58 1
    49   23   24 1
    50   23   59 1
    51   23   73 1
    52   24   25 1
    53   24   60 1
    54   24   61 1
    55   25   62 1
    56   25   63 1
    57   26   27 2
    58   26   28 1
    59   28   33 ar
    60   28   29 ar
    61   29   30 ar
    62   29   64 1
    63   30   31 ar
    64   30   65 1
    65   31   32 ar
    66   31   66 1
    67   32   33 ar
    68   32   67 1
    69   33   34 1
    70   34   35 1
    71   35   36 1
    72   35   68 1
    73   35   69 1
    74   36   70 1
    75   36   71 1
    76   36   72 1
@<TRIPOS>MOLECULE
ZINC40975958
   64    68     0     0     0
SMALL
USER_CHARGES

@<TRIPOS>ATOM
      1 C1         -0.0167    1.3800    0.0096 C.ar      1 <0>        -0.0723
      2 C2          1.1934    2.0590    0.0017 C.ar      1 <0>        -0.1541
      3 C3          2.3753    1.3398   -0.0134 C.ar      1 <0>         0.1018
      4 N1          2.3659    0.0232   -0.0204 N.ar      1 <0>        -0.4669
      5 C4          1.2302   -0.6647   -0.0133 C.ar      1 <0>         0.1751
      6 C5          0.0021   -0.0041    0.0020 C.ar      1 <0>        -0.1130
      7 C6          1.2679   -2.1437   -0.0216 C.2       1 <0>         0.3407
      8 N2          0.2156   -2.9246   -0.0214 N.2       1 <0>        -0.4629
      9 C7          0.6090   -4.2205   -0.0302 C.ar      1 <0>         0.0793
     10 C8         -0.0860   -5.4352   -0.0335 C.ar      1 <0>        -0.0979
     11 C9          0.6124   -6.6222   -0.0426 C.ar      1 <0>         0.0998
     12 C10         2.0027   -6.6228   -0.0485 C.ar      1 <0>        -0.1255
     13 C11         2.7018   -5.4351   -0.0453 C.ar      1 <0>        -0.0764
     14 C12         2.0156   -4.2286   -0.0362 C.ar      1 <0>         0.0456
     15 N3          2.4084   -2.9030   -0.0365 N.pl3     1 <0>        -0.4274
     16 C13         3.7262   -2.4253   -0.0473 C.ar      1 <0>         0.1053
     17 C14         4.5395   -2.6557   -1.1489 C.ar      1 <0>        -0.0642
     18 C15         5.8374   -2.1846   -1.1590 C.ar      1 <0>        -0.1348
     19 C16         6.3288   -1.4811   -0.0689 C.ar      1 <0>         0.1348
     20 C17         5.5169   -1.2510    1.0322 C.ar      1 <0>        -0.1954
     21 C18         4.2170   -1.7167    1.0413 C.ar      1 <0>        -0.0268
     22 O1          7.6068   -1.0174   -0.0795 O.3       1 <0>        -0.3102
     23 C19         8.0468   -0.3014    1.0762 C.3       1 <0>         0.0623
     24 C20         9.4994    0.1380    0.8816 C.3       1 <0>        -0.1522
     25 C21         9.9704    0.9047    2.1190 C.3       1 <0>        -0.0057
     26 N4         11.3651    1.3266    1.9321 N.4       1 <0>        -0.3839
     27 C22        11.4409    2.2823    0.8207 C.3       1 <0>        -0.0125
     28 C23        12.9014    2.6631    0.5691 C.3       1 <0>        -0.1288
     29 C24        13.4819    3.3019    1.8342 C.3       1 <0>        -0.1239
     30 C25        13.3300    2.3246    3.0034 C.3       1 <0>        -0.1406
     31 C26        11.8535    1.9564    3.1647 C.3       1 <0>        -0.0031
     32 C27        14.9417    3.6081    1.6198 C.2       1 <0>         0.5195
     33 O2         15.4678    3.3423    0.5598 O.2       1 <0>        -0.5277
     34 N5         15.6628    4.1775    2.6059 N.am      1 <0>        -0.8494
     35 F1         -0.0586   -7.7949   -0.0453 F         1 <0>        -0.1309
     36 H1         -0.9522    1.9194    0.0259 H         1 <0>         0.1466
     37 H2          1.2125    3.1388    0.0070 H         1 <0>         0.1418
     38 H3          3.3187    1.8656   -0.0200 H         1 <0>         0.1590
     39 H4         -0.9212   -0.5644    0.0082 H         1 <0>         0.1527
     40 H5         -1.1660   -5.4417   -0.0286 H         1 <0>         0.1486
     41 H6          2.5385   -7.5605   -0.0552 H         1 <0>         0.1482
     42 H7          3.7818   -5.4431   -0.0496 H         1 <0>         0.1348
     43 H8          4.1572   -3.2036   -1.9974 H         1 <0>         0.1364
     44 H9          6.4702   -2.3640   -2.0156 H         1 <0>         0.1406
     45 H10         5.9002   -0.7036    1.8807 H         1 <0>         0.1317
     46 H11         3.5837   -1.5336    1.8967 H         1 <0>         0.1264
     47 H12         7.4178    0.5770    1.2207 H         1 <0>         0.0739
     48 H13         7.9766   -0.9466    1.9519 H         1 <0>         0.0736
     49 H14        10.1284   -0.7403    0.7371 H         1 <0>         0.1005
     50 H15         9.5696    0.7832    0.0059 H         1 <0>         0.1005
     51 H16         9.3414    1.7831    2.2635 H         1 <0>         0.1348
     52 H17         9.9002    0.2595    2.9947 H         1 <0>         0.1362
     53 H18        11.0245    1.8274   -0.0781 H         1 <0>         0.1384
     54 H19        10.8707    3.1767    1.0717 H         1 <0>         0.1325
     55 H20        13.4725    1.7694    0.3178 H         1 <0>         0.0988
     56 H21        12.9554    3.3741   -0.2553 H         1 <0>         0.1214
     57 H22        12.9438    4.2233    2.0570 H         1 <0>         0.1177
     58 H23        13.9099    1.4238    2.8026 H         1 <0>         0.0968
     59 H24        13.6903    2.7937    3.9190 H         1 <0>         0.1183
     60 H25        11.2746    2.8577    3.3658 H         1 <0>         0.1335
     61 H26        11.7418    1.2608    3.9965 H         1 <0>         0.1371
     62 H27        15.2420    4.3902    3.4536 H         1 <0>         0.4032
     63 H28        16.6024    4.3747    2.4679 H         1 <0>         0.4124
     64 H29        11.9336    0.5206    1.7194 H         1 <0>         0.4258
@<TRIPOS>BOND
     1    1    6 ar
     2    1    2 ar
     3    1   36 1
     4    2    3 ar
     5    2   37 1
     6    3    4 ar
     7    3   38 1
     8    4    5 ar
     9    5    6 ar
    10    5    7 1
    11    6   39 1
    12    7   15 1
    13    7    8 2
    14    8    9 1
    15    9   14 ar
    16    9   10 ar
    17   10   11 ar
    18   10   40 1
    19   11   12 ar
    20   11   35 1
    21   12   13 ar
    22   12   41 1
    23   13   14 ar
    24   13   42 1
    25   14   15 1
    26   15   16 1
    27   16   21 ar
    28   16   17 ar
    29   17   18 ar
    30   17   43 1
    31   18   19 ar
    32   18   44 1
    33   19   20 ar
    34   19   22 1
    35   20   21 ar
    36   20   45 1
    37   21   46 1
    38   22   23 1
    39   23   24 1
    40   23   47 1
    41   23   48 1
    42   24   25 1
    43   24   49 1
    44   24   50 1
    45   25   26 1
    46   25   51 1
    47   25   52 1
    48   26   31 1
    49   26   27 1
    50   26   64 1
    51   27   28 1
    52   27   53 1
    53   27   54 1
    54   28   29 1
    55   28   55 1
    56   28   56 1
    57   29   30 1
    58   29   32 1
    59   29   57 1
    60   30   31 1
    61   30   58 1
    62   30   59 1
    63   31   60 1
    64   31   61 1
    65   32   33 2
    66   32   34 am
    67   34   62 1
    68   34   63 1
@<TRIPOS>MOLECULE
ZINC04772283
   24    24     0     0     0
SMALL
USER_CHARGES
4-[(5-iodo-2-furyl)methylene]-3-methyl-pent-2-enedioic acid
@<TRIPOS>ATOM
      1 C1         -4.0066    1.7937    0.2067 C.3       1 <0>        -0.0821
      2 C2         -2.5917    1.2815    0.1250 C.2       1 <0>        -0.0987
      3 C3         -2.3391   -0.0427    0.2838 C.2       1 <0>        -0.1172
      4 C4         -3.4074   -0.9492    0.4595 C.2       1 <0>         0.4745
      5 O1         -4.5571   -0.5584    0.3759 O.co2     1 <0>        -0.6331
      6 C5         -1.5242    2.1828   -0.1178 C.2       1 <0>         0.0005
      7 C6         -1.7917    3.5203   -0.3907 C.2       1 <0>        -0.1914
      8 C7         -0.7458    4.3874   -0.7435 C.2       1 <0>         0.1144
      9 C8         -0.8490    5.7568   -0.9397 C.2       1 <0>        -0.2556
     10 C9          0.4317    6.2079   -1.2742 C.2       1 <0>        -0.1524
     11 C10         1.2525    5.1285   -1.2713 C.2       1 <0>        -0.0693
     12 O2          0.5435    4.0394   -0.9473 O.3       1 <0>        -0.1119
     13 I1          3.3033    5.1605   -1.6980 I         1 <0>         0.0355
     14 C11        -0.1366    1.7043   -0.0810 C.2       1 <0>         0.4962
     15 O3          0.3214    1.0941   -1.0279 O.co2     1 <0>        -0.6234
     16 H1         -4.0065    2.8790    0.1050 H         1 <0>         0.0353
     17 H2         -4.5992    1.3537   -0.5953 H         1 <0>         0.0750
     18 H3         -4.4374    1.5191    1.1695 H         1 <0>         0.0676
     19 H4         -1.3210   -0.4029    0.2757 H         1 <0>         0.1137
     20 H5         -2.8042    3.8916   -0.3312 H         1 <0>         0.1488
     21 H6         -1.7427    6.3568   -0.8511 H         1 <0>         0.1479
     22 H7          0.7146    7.2267   -1.4943 H         1 <0>         0.1438
     23 O4         -3.1536   -2.2492    0.7202 O.co2     1 <0>        -0.7713
     24 O5          0.6283    1.9367    1.0051 O.co2     1 <0>        -0.7468
@<TRIPOS>BOND
     1    1    2 1
     2    1   16 1
     3    1   17 1
     4    1   18 1
     5    2    3 2
     6    2    6 1
     7    3    4 1
     8    3   19 1
     9    4    5 2
    10    4   23 1
    11    6    7 2
    12    6   14 1
    13    7    8 1
    14    7   20 1
    15    8   12 1
    16    8    9 2
    17    9   10 1
    18    9   21 1
    19   10   11 2
    20   10   22 1
    21   11   12 1
    22   11   13 1
    23   14   15 2
    24   14   24 1
@<TRIPOS>MOLECULE
ZINC20412015
   45    46     0     0     0
SMALL
USER_CHARGES
(E)-3-[3-[[(Z)-3-(4,4-dimethyl-2,6-dioxo-cyclohexyl)-3-oxo-prop-1-enyl]amino]phenyl]prop-2-enoic acid
@<TRIPOS>ATOM
      1 C1          8.8168   -5.6697   -0.9625 C.3       1 <0>        -0.1449
      2 C2          7.4228   -5.2146   -1.3991 C.3       1 <0>        -0.0399
      3 C3          6.5100   -5.1212   -0.1733 C.3       1 <0>        -0.1857
      4 C4          7.0687   -4.0888    0.7800 C.2       1 <0>         0.4214
      5 O1          7.2996   -4.3679    1.9320 O.3       1 <0>        -0.5055
      6 C5          7.3302   -2.6940    0.2486 C.2       1 <0>        -0.6326
      7 C6          8.0573   -2.8395   -1.0729 C.2       1 <0>         0.4235
      8 O2          9.0350   -2.1753   -1.3202 O.2       1 <0>        -0.4985
      9 C7          7.5219   -3.8428   -2.0720 C.3       1 <0>        -0.1798
     10 C8          6.0238   -1.9729    0.0379 C.2       1 <0>         0.4361
     11 O3          5.0017   -2.6063   -0.1384 O.2       1 <0>        -0.5722
     12 C9          5.9876   -0.5714    0.0451 C.2       1 <0>        -0.3255
     13 C10         4.8396    0.0786   -0.2669 C.2       1 <0>         0.1658
     14 N1          3.7736   -0.6170   -0.7560 N.pl3     1 <0>        -0.6529
     15 C11         2.5505    0.0290   -0.9573 C.ar      1 <0>         0.1839
     16 C12         2.4208    1.3811   -0.6583 C.ar      1 <0>        -0.1997
     17 C13         1.2137    2.0257   -0.8547 C.ar      1 <0>        -0.0793
     18 C14         0.1280    1.3328   -1.3490 C.ar      1 <0>        -0.1664
     19 C15         0.2466   -0.0272   -1.6533 C.ar      1 <0>        -0.0004
     20 C16         1.4673   -0.6781   -1.4544 C.ar      1 <0>        -0.1672
     21 C17        -0.9093   -0.7698   -2.1813 C.2       1 <0>        -0.1153
     22 C18        -2.0863   -0.1387   -2.3727 C.2       1 <0>        -0.1520
     23 C19        -3.2347   -0.8765   -2.8973 C.2       1 <0>         0.4761
     24 O4         -3.1289   -2.0591   -3.1611 O.co2     1 <0>        -0.6354
     25 O5         -4.4116   -0.2454   -3.0887 O.co2     1 <0>        -0.7682
     26 C20         6.8436   -6.2265   -2.3896 C.3       1 <0>        -0.1384
     27 H1          8.7461   -6.6552   -0.4790 H         1 <0>         0.0518
     28 H2          9.2342   -4.9416   -0.2515 H         1 <0>         0.0601
     29 H3          9.4722   -5.7395   -1.8431 H         1 <0>         0.0510
     30 H4          5.4994   -4.8244   -0.4905 H         1 <0>         0.0976
     31 H5          6.4648   -6.1005    0.3257 H         1 <0>         0.0553
     32 H6          8.2019   -3.9057   -2.9344 H         1 <0>         0.0630
     33 H7          6.5245   -3.5291   -2.4137 H         1 <0>         0.0808
     34 H8          6.8907    0.0008    0.3039 H         1 <0>         0.1344
     35 H9          4.7680    1.1671   -0.1255 H         1 <0>         0.1344
     36 H10         3.8762   -1.6864   -0.9921 H         1 <0>         0.4442
     37 H11         3.2668    1.9298   -0.2713 H         1 <0>         0.1194
     38 H12         1.1204    3.0759   -0.6207 H         1 <0>         0.1182
     39 H13        -0.8119    1.8413   -1.5052 H         1 <0>         0.1231
     40 H14         1.5661   -1.7280   -1.6875 H         1 <0>         0.1238
     41 H15        -0.8135   -1.8393   -2.4199 H         1 <0>         0.1284
     42 H16        -2.1821    0.9308   -2.1341 H         1 <0>         0.1090
     43 H17         5.8414   -5.8997   -2.7037 H         1 <0>         0.0558
     44 H18         6.7733   -7.2126   -1.9073 H         1 <0>         0.0520
     45 H19         7.4997   -6.2947   -3.2699 H         1 <0>         0.0506
@<TRIPOS>BOND
     1    1    2 1
     2    1   27 1
     3    1   28 1
     4    1   29 1
     5    2    9 1
     6    2    3 1
     7    2   26 1
     8    3    4 1
     9    3   30 1
    10    3   31 1
    11    4    5 1
    12    4    6 2
    13    6    7 1
    14    6   10 1
    15    7    8 2
    16    7    9 1
    17    9   32 1
    18    9   33 1
    19   10   11 2
    20   10   12 1
    21   12   13 2
    22   12   34 1
    23   13   14 1
    24   13   35 1
    25   14   15 1
    26   14   36 1
    27   15   20 ar
    28   15   16 ar
    29   16   17 ar
    30   16   37 1
    31   17   18 ar
    32   17   38 1
    33   18   19 ar
    34   18   39 1
    35   19   20 ar
    36   19   21 1
    37   20   40 1
    38   21   22 2
    39   21   41 1
    40   22   23 1
    41   22   42 1
    42   23   24 2
    43   23   25 1
    44   26   43 1
    45   26   44 1
    46   26   45 1
@<TRIPOS>MOLECULE
ZINC37657127
   29    30     0     0     0
SMALL
USER_CHARGES

@<TRIPOS>ATOM
      1 C1         -0.0159    1.3178    0.0093 C.2       1 <0>         0.1616
      2 C2          1.1830    1.9498    0.0012 C.2       1 <0>        -0.3458
      3 S1          2.2958    0.5538   -0.0169 S.3       1 <0>         0.0580
      4 C3          1.1381   -0.6676   -0.0124 C.2       1 <0>         0.4162
      5 N1          0.0021   -0.0041    0.0020 N.2       1 <0>        -0.6650
      6 N2          1.3339   -2.0403   -0.0220 N.2       1 <0>        -1.0328
      7 S2          0.0311   -3.0626   -0.0150 S.o2      1 <0>         2.7518
      8 O1         -0.6162   -2.8870    1.2378 O.2       1 <0>        -1.0241
      9 O2         -0.6406   -2.8730   -1.2528 O.2       1 <0>        -1.0357
     10 N3          0.6225   -4.6094   -0.0295 N.pl3     1 <0>        -0.9945
     11 C4          0.8831   -5.2993   -1.3002 C.3       1 <0>         0.1323
     12 C5          2.3278   -5.8088   -1.2975 C.3       1 <0>        -0.1325
     13 C6          2.5576   -6.6721   -0.0549 C.3       1 <0>        -0.0872
     14 C7          2.3410   -5.8271    1.2026 C.3       1 <0>        -0.1677
     15 H1          3.0256   -4.9790    1.1935 H         1 <0>         0.0704
     16 C8          0.9022   -5.3157    1.2281 C.3       1 <0>         0.1569
     17 C9          2.5998   -6.6693    2.4252 C.2       1 <0>         0.5024
     18 O3          3.6958   -7.1754    2.5960 O.co2     1 <0>        -0.7074
     19 O4          1.7132   -6.8446    3.2436 O.co2     1 <0>        -0.6991
     20 Br1         1.5705    3.8007    0.0070 Br        1 <0>        -0.0171
     21 H2         -0.9443    1.8694    0.0255 H         1 <0>         0.1489
     22 H3          0.1989   -6.1412   -1.4059 H         1 <0>         0.0554
     23 H4          0.7420   -4.6050   -2.1286 H         1 <0>         0.0770
     24 H5          2.5050   -6.4050   -2.1926 H         1 <0>         0.0584
     25 H6          3.0125   -4.9608   -1.2831 H         1 <0>         0.0670
     26 H7          1.8559   -7.5061   -0.0573 H         1 <0>         0.0491
     27 H8          3.5777   -7.0560   -0.0631 H         1 <0>         0.0609
     28 H9          0.7737   -4.6322    2.0675 H         1 <0>         0.0811
     29 H10         0.2196   -6.1590    1.3332 H         1 <0>         0.0614
@<TRIPOS>BOND
     1    1    5 1
     2    1    2 2
     3    1   21 1
     4    2    3 1
     5    2   20 1
     6    3    4 1
     7    4    5 2
     8    4    6 1
     9    6    7 1
    10    7    8 2
    11    7    9 2
    12    7   10 1
    13   10   16 1
    14   10   11 1
    15   11   12 1
    16   11   22 1
    17   11   23 1
    18   12   13 1
    19   12   24 1
    20   12   25 1
    21   13   14 1
    22   13   26 1
    23   13   27 1
    24   14   15 1
    25   14   16 1
    26   14   17 1
    27   16   28 1
    28   16   29 1
    29   17   18 2
    30   17   19 1
@<TRIPOS>MOLECULE
ZINC42522007
   24    24     0     0     0
SMALL
USER_CHARGES

@<TRIPOS>ATOM
      1 C1         -0.0187    1.5258    0.0104 C.3       1 <0>        -0.0999
      2 C2          0.0021   -0.0041    0.0020 C.3       1 <0>        -0.6345
      3 H1          0.5293   -0.3651    0.8851 H         1 <0>         0.1107
      4 C3          0.7074   -0.4901   -1.2379 C.2       1 <0>         0.5201
      5 O1          1.9225   -0.5900   -1.2484 O.co2     1 <0>        -0.6928
      6 O2          0.0630   -0.7833   -2.2305 O.co2     1 <0>        -0.6808
      7 S1         -1.6997   -0.6320    0.0149 S.o2      1 <0>         2.5865
      8 O3         -2.4193   -0.1184   -1.0977 O.2       1 <0>        -1.0084
      9 O4         -1.7058   -2.0237    0.3017 O.2       1 <0>        -1.0347
     10 N1         -2.4042    0.0749    1.3365 N.2       1 <0>        -1.0792
     11 C4         -3.7422   -0.1983    1.6468 C.ar      1 <0>         0.2846
     12 C5         -4.4787   -1.0673    0.8493 C.ar      1 <0>        -0.0218
     13 C6         -5.7996   -1.3350    1.1583 C.ar      1 <0>        -0.1183
     14 C7         -6.3885   -0.7383    2.2607 C.ar      1 <0>        -0.0150
     15 C8         -5.6570    0.1273    3.0554 C.ar      1 <0>        -0.0797
     16 C9         -4.3339    0.3937    2.7544 C.ar      1 <0>        -0.1287
     17 Br1        -3.3336    1.5700    3.8460 Br        1 <0>        -0.0590
     18 F1         -7.6793   -1.0013    2.5607 F         1 <0>        -0.1584
     19 F2         -3.9044   -1.6490   -0.2263 F         1 <0>        -0.1205
     20 H2          1.0039    1.9031    0.0027 H         1 <0>         0.0512
     21 H3         -0.5459    1.8868   -0.8726 H         1 <0>         0.0552
     22 H4         -0.5289    1.8773    0.9072 H         1 <0>         0.0692
     23 H5         -6.3726   -2.0095    0.5393 H         1 <0>         0.1279
     24 H6         -6.1188    0.5915    3.9143 H         1 <0>         0.1263
@<TRIPOS>BOND
     1    1    2 1
     2    1   20 1
     3    1   21 1
     4    1   22 1
     5    2    3 1
     6    2    4 1
     7    2    7 1
     8    4    5 2
     9    4    6 1
    10    7    8 2
    11    7    9 2
    12    7   10 1
    13   10   11 1
    14   11   16 ar
    15   11   12 ar
    16   12   13 ar
    17   12   19 1
    18   13   14 ar
    19   13   23 1
    20   14   15 ar
    21   14   18 1
    22   15   16 ar
    23   15   24 1
    24   16   17 1
@<TRIPOS>MOLECULE
ZINC59250401
   40    41     0     0     0
SMALL
USER_CHARGES

@<TRIPOS>ATOM
      1 C1         -0.0184    1.5028    0.0103 C.3       1 <0>        -0.0901
      2 C2          0.0021   -0.0041    0.0020 C.2       1 <0>         0.0351
      3 C3          0.0081   -0.7807   -1.0970 C.2       1 <0>        -0.1816
      4 C4          0.0289   -2.1695   -0.6281 C.2       1 <0>        -0.1831
      5 C5          0.0337   -2.1129    0.7364 C.2       1 <0>         0.1142
      6 N1          0.0235   -0.8042    1.1085 N.pl3     1 <0>        -0.3757
      7 C6          0.0302   -0.3447    2.4331 C.ar      1 <0>         0.0475
      8 C7          1.1333   -0.5781    3.2403 C.ar      1 <0>        -0.0697
      9 C8          1.1441   -0.1219    4.5612 C.ar      1 <0>        -0.1475
     10 C9          0.0438    0.5693    5.0670 C.ar      1 <0>        -0.0303
     11 C10        -1.0632    0.8023    4.2519 C.ar      1 <0>        -0.1486
     12 C11        -1.0639    0.3468    2.9307 C.ar      1 <0>        -0.0723
     13 C12        -2.2306    1.5328    4.7822 C.2       1 <0>         0.5282
     14 O1         -2.2276    1.9343    5.9373 O.co2     1 <0>        -0.6844
     15 O2         -3.2011    1.7367    4.0666 O.co2     1 <0>        -0.6978
     16 C13         2.3182   -0.3716    5.4196 C.2       1 <0>         0.5277
     17 O3          3.2826   -0.9782    4.9752 O.co2     1 <0>        -0.6967
     18 O4          2.3268    0.0280    6.5753 O.co2     1 <0>        -0.6847
     19 C14         0.0529   -3.2962    1.6693 C.3       1 <0>        -0.0929
     20 C15         0.0412   -3.3844   -1.4628 C.2       1 <0>         0.1805
     21 N2          0.0590   -4.5558   -0.9037 N.2       1 <0>        -0.2683
     22 N3          0.0707   -5.7105   -1.6970 N.am      1 <0>        -0.5888
     23 C16         0.0892   -6.9267   -1.1165 C.2       1 <0>         0.5203
     24 O5          0.0958   -7.0215    0.0930 O.2       1 <0>        -0.5127
     25 C17         0.1018   -8.1688   -1.9698 C.3       1 <0>        -0.1623
     26 H1          1.0042    1.8801    0.0026 H         1 <0>         0.0687
     27 H2         -0.5455    1.8639   -0.8728 H         1 <0>         0.0748
     28 H3         -0.5286    1.8543    0.9071 H         1 <0>         0.0748
     29 H4         -0.0010   -0.4462   -2.1238 H         1 <0>         0.1398
     30 H5          1.9851   -1.1135    2.8477 H         1 <0>         0.1236
     31 H6          0.0489    0.9229    6.0875 H         1 <0>         0.1379
     32 H7         -1.9194    0.5301    2.2975 H         1 <0>         0.1242
     33 H8          1.0851   -3.5679    1.8904 H         1 <0>         0.0753
     34 H9         -0.4609   -3.0373    2.5951 H         1 <0>         0.0649
     35 H10        -0.4516   -4.1392    1.1973 H         1 <0>         0.0982
     36 H11         0.0354   -3.3000   -2.5395 H         1 <0>         0.1097
     37 H12         0.0655   -5.6347   -2.6640 H         1 <0>         0.3759
     38 H13         0.0935   -7.8865   -3.0226 H         1 <0>         0.0735
     39 H14         1.0004   -8.7475   -1.7559 H         1 <0>         0.0965
     40 H15        -0.7794   -8.7708   -1.7481 H         1 <0>         0.0962
@<TRIPOS>BOND
     1    1    2 1
     2    1   26 1
     3    1   27 1
     4    1   28 1
     5    2    6 1
     6    2    3 2
     7    3    4 1
     8    3   29 1
     9    4    5 2
    10    4   20 1
    11    5    6 1
    12    5   19 1
    13    6    7 1
    14    7   12 ar
    15    7    8 ar
    16    8    9 ar
    17    8   30 1
    18    9   10 ar
    19    9   16 1
    20   10   11 ar
    21   10   31 1
    22   11   12 ar
    23   11   13 1
    24   12   32 1
    25   13   14 2
    26   13   15 1
    27   16   17 2
    28   16   18 1
    29   19   33 1
    30   19   34 1
    31   19   35 1
    32   20   21 2
    33   20   36 1
    34   21   22 1
    35   22   23 am
    36   22   37 1
    37   23   24 2
    38   23   25 1
    39   25   38 1
    40   25   39 1
    41   25   40 1
@<TRIPOS>MOLECULE
ZINC00994170
   45    47     0     0     0
SMALL
USER_CHARGES
tert-butyl amino-cyano-fluoro-methyl-oxo-BLAHcarboxylate
@<TRIPOS>ATOM
      1 C1         -4.0082   -0.3071   -2.3956 C.3       1 <0>        -0.1036
      2 C2         -3.1834   -0.4156   -1.1391 C.2       1 <0>         0.2068
      3 C3         -1.9434   -0.9191   -1.2191 C.2       1 <0>        -0.2409
      4 C4         -1.0861   -1.0483    0.0065 C.3       1 <0>         0.0994
      5 C5          0.0021   -0.0041    0.0020 C.ar      1 <0>        -0.1469
      6 C6         -0.0166    1.3728    0.0096 C.ar      1 <0>        -0.0228
      7 C7          1.1721    2.0804    0.0020 C.ar      1 <0>        -0.1765
      8 C8          2.3786    1.3997   -0.0129 C.ar      1 <0>         0.1433
      9 C9          2.3996    0.0183   -0.0206 C.ar      1 <0>        -0.1809
     10 C10         1.2057   -0.6995   -0.0129 C.ar      1 <0>         0.1975
     11 N1          0.9683   -2.0749   -0.0172 N.am      1 <0>        -0.6474
     12 C11        -0.3451   -2.3642   -0.0055 C.2       1 <0>         0.5549
     13 O1         -0.8403   -3.4714   -0.0041 O.2       1 <0>        -0.4779
     14 F1          3.5400    2.0898   -0.0198 F         1 <0>        -0.1314
     15 C12        -1.9230   -0.9295    1.2477 C.2       1 <0>        -0.2543
     16 C13        -3.1788   -0.4205    1.1829 C.2       1 <0>         0.4407
     17 O2         -3.7138   -0.0048    0.0218 O.3       1 <0>        -0.2245
     18 N2         -3.9227   -0.3278    2.3329 N.pl3     1 <0>        -0.8198
     19 C14        -1.3924   -1.3566    2.5073 C.1       1 <0>         0.2653
     20 N3         -0.9715   -1.6955    3.5066 N.1       1 <0>        -0.4217
     21 C15        -1.4363   -1.3340   -2.4749 C.2       1 <0>         0.5273
     22 O3         -2.1249   -1.2325   -3.4727 O.2       1 <0>        -0.4992
     23 O4         -0.1895   -1.8419   -2.5646 O.3       1 <0>        -0.3370
     24 C16         0.2571   -2.2401   -3.8623 C.3       1 <0>         0.1207
     25 C17         0.2366   -1.0325   -4.8015 C.3       1 <0>        -0.1831
     26 C18         1.6828   -2.7868   -3.7655 C.3       1 <0>        -0.1407
     27 C19        -0.6700   -3.3274   -4.4093 C.3       1 <0>        -0.1851
     28 H1         -4.9820    0.1195   -2.1554 H         1 <0>         0.0809
     29 H2         -3.4965    0.3359   -3.1117 H         1 <0>         0.1152
     30 H3         -4.1425   -1.2983   -2.8287 H         1 <0>         0.1152
     31 H4         -0.9591    1.9002    0.0169 H         1 <0>         0.1357
     32 H5          1.1596    3.1603    0.0074 H         1 <0>         0.1442
     33 H6          3.3436   -0.5062   -0.0330 H         1 <0>         0.1411
     34 H7          1.6697   -2.7449   -0.0269 H         1 <0>         0.4172
     35 H8         -3.5491   -0.6243    3.1775 H         1 <0>         0.4293
     36 H9         -4.8221    0.0343    2.3008 H         1 <0>         0.4163
     37 H10         0.8971   -0.2579   -4.4117 H         1 <0>         0.0608
     38 H11         0.5773   -1.3362   -5.7913 H         1 <0>         0.0707
     39 H12        -0.7791   -0.6430   -4.8704 H         1 <0>         0.0847
     40 H13         1.6973   -3.6472   -3.0964 H         1 <0>         0.0647
     41 H14         2.0234   -3.0905   -4.7553 H         1 <0>         0.0798
     42 H15         2.3433   -2.0122   -3.3758 H         1 <0>         0.0658
     43 H16        -1.6857   -2.9379   -4.4782 H         1 <0>         0.0844
     44 H17        -0.3294   -3.6311   -5.3991 H         1 <0>         0.0709
     45 H18        -0.6555   -4.1877   -3.7402 H         1 <0>         0.0612
@<TRIPOS>BOND
     1    1    2 1
     2    1   28 1
     3    1   29 1
     4    1   30 1
     5    2   17 1
     6    2    3 2
     7    3    4 1
     8    3   21 1
     9    4   12 1
    10    4    5 1
    11    4   15 1
    12    5   10 ar
    13    5    6 ar
    14    6    7 ar
    15    6   31 1
    16    7    8 ar
    17    7   32 1
    18    8    9 ar
    19    8   14 1
    20    9   10 ar
    21    9   33 1
    22   10   11 1
    23   11   12 am
    24   11   34 1
    25   12   13 2
    26   15   16 2
    27   15   19 1
    28   16   17 1
    29   16   18 1
    30   18   35 1
    31   18   36 1
    32   19   20 3
    33   21   22 2
    34   21   23 1
    35   23   24 1
    36   24   25 1
    37   24   26 1
    38   24   27 1
    39   25   37 1
    40   25   38 1
    41   25   39 1
    42   26   40 1
    43   26   41 1
    44   26   42 1
    45   27   43 1
    46   27   44 1
    47   27   45 1
@<TRIPOS>MOLECULE
ZINC14779854
   38    40     0     0     0
SMALL
USER_CHARGES
5,7-dihydroxy-2-(4-hydroxy-3-methoxy-phenyl)-6-methoxy-chromen-4-one
@<TRIPOS>ATOM
      1 C1         -0.1230    4.0919    0.0243 C.3       1 <0>         0.0214
      2 O1          1.1572    3.4571    0.0091 O.3       1 <0>        -0.3033
      3 C2          1.1720    2.0972    0.0021 C.ar      1 <0>         0.1011
      4 C3         -0.0169    1.3934    0.0097 C.ar      1 <0>        -0.1578
      5 C4          0.0021   -0.0041    0.0020 C.ar      1 <0>        -0.0433
      6 C5          1.2235   -0.6829   -0.0133 C.ar      1 <0>        -0.0980
      7 C6          2.4055    0.0256   -0.0208 C.ar      1 <0>        -0.1078
      8 C7          2.3866    1.4136   -0.0127 C.ar      1 <0>         0.1051
      9 O2          3.5546    2.1073   -0.0197 O.3       1 <0>        -0.4829
     10 C8         -1.2642   -0.7607    0.0105 C.2       1 <0>         0.2060
     11 C9         -1.2140   -2.1200   -0.0029 C.2       1 <0>        -0.3036
     12 C10        -2.4180   -2.8628    0.0103 C.2       1 <0>         0.4234
     13 O3         -2.4102   -4.0832    0.0033 O.2       1 <0>        -0.4482
     14 C11        -3.6814   -2.1059    0.0264 C.ar      1 <0>        -0.2526
     15 C12        -3.6218   -0.7012    0.0338 C.ar      1 <0>         0.1786
     16 O4         -2.4218   -0.0813    0.0257 O.3       1 <0>        -0.2171
     17 C13        -4.7981    0.0317    0.0489 C.ar      1 <0>        -0.1688
     18 C14        -6.0219   -0.6189    0.0562 C.ar      1 <0>         0.1729
     19 C15        -6.0855   -2.0109    0.0494 C.ar      1 <0>         0.0133
     20 C16        -4.9192   -2.7593    0.0343 C.ar      1 <0>         0.2003
     21 O5         -4.9768   -4.1164    0.0278 O.3       1 <0>        -0.4588
     22 O6         -7.2948   -2.6363    0.0572 O.3       1 <0>        -0.3094
     23 C17        -7.8827   -2.9277   -1.2122 C.3       1 <0>         0.0304
     24 O7         -7.1699    0.1071    0.0705 O.3       1 <0>        -0.4741
     25 H1          0.0080    5.1740    0.0285 H         1 <0>         0.1060
     26 H2         -0.6851    3.7974   -0.8620 H         1 <0>         0.0580
     27 H3         -0.6684    3.7884    0.9179 H         1 <0>         0.0591
     28 H4         -0.9587    1.9219    0.0170 H         1 <0>         0.1455
     29 H5          1.2411   -1.7628   -0.0196 H         1 <0>         0.1442
     30 H6          3.3488   -0.5002   -0.0326 H         1 <0>         0.1497
     31 H7          3.8845    2.3131   -0.9050 H         1 <0>         0.3940
     32 H8         -0.2615   -2.6288   -0.0190 H         1 <0>         0.1671
     33 H9         -4.7610    1.1110    0.0546 H         1 <0>         0.1585
     34 H10        -5.0020   -4.5047   -0.8575 H         1 <0>         0.3987
     35 H11        -8.0365   -1.9997   -1.7630 H         1 <0>         0.0454
     36 H12        -7.2188   -3.5807   -1.7788 H         1 <0>         0.0457
     37 H13        -8.8411   -3.4249   -1.0632 H         1 <0>         0.1023
     38 H14        -7.5102    0.3223   -0.8087 H         1 <0>         0.3992
@<TRIPOS>BOND
     1    1    2 1
     2    1   25 1
     3    1   26 1
     4    1   27 1
     5    2    3 1
     6    3    8 ar
     7    3    4 ar
     8    4    5 ar
     9    4   28 1
    10    5    6 ar
    11    5   10 1
    12    6    7 ar
    13    6   29 1
    14    7    8 ar
    15    7   30 1
    16    8    9 1
    17    9   31 1
    18   10   16 1
    19   10   11 2
    20   11   12 1
    21   11   32 1
    22   12   13 2
    23   12   14 1
    24   14   20 ar
    25   14   15 ar
    26   15   16 1
    27   15   17 ar
    28   17   18 ar
    29   17   33 1
    30   18   19 ar
    31   18   24 1
    32   19   20 ar
    33   19   22 1
    34   20   21 1
    35   21   34 1
    36   22   23 1
    37   23   35 1
    38   23   36 1
    39   23   37 1
    40   24   38 1
@<TRIPOS>MOLECULE
ZINC32513705
   42    44     0     0     0
SMALL
USER_CHARGES

@<TRIPOS>ATOM
      1 C1         -0.0187    1.5258    0.0104 C.3       1 <0>        -0.1464
      2 C2          0.0021   -0.0041    0.0020 C.3       1 <0>        -0.0473
      3 C3          0.7074   -0.4901   -1.2379 C.2       1 <0>         0.1270
      4 C4          0.1113   -0.7579   -2.4628 C.2       1 <0>        -0.2559
      5 C5          1.0857   -1.1763   -3.3256 C.2       1 <0>         0.2701
      6 N1          2.2504   -1.1672   -2.6577 N.pl3     1 <0>        -0.4480
      7 H1          3.1166   -1.4159   -3.0166 H         1 <0>         0.4457
      8 N2          1.9927   -0.7284   -1.3495 N.2       1 <0>        -0.2635
      9 O1          0.8265   -1.5211   -4.6114 O.3       1 <0>        -0.2319
     10 C6         -0.4627   -1.7082   -4.9599 C.2       1 <0>         0.4333
     11 C7         -1.5112   -1.3266   -4.1973 C.2       1 <0>        -0.2521
     12 C8         -1.3357   -0.6391   -2.8662 C.3       1 <0>         0.1314
     13 H2         -1.9666   -1.1201   -2.1187 H         1 <0>         0.1036
     14 C9         -1.7113    0.8151   -2.9900 C.ar      1 <0>        -0.1380
     15 C10        -1.0527    1.6235   -3.8969 C.ar      1 <0>        -0.0240
     16 C11        -1.3947    2.9570   -4.0128 C.ar      1 <0>        -0.2433
     17 C12        -2.4010    3.4881   -3.2180 C.ar      1 <0>         0.1663
     18 C13        -3.0631    2.6793   -2.3076 C.ar      1 <0>        -0.2424
     19 C14        -2.7219    1.3399   -2.1972 C.ar      1 <0>         0.1780
     20 O2         -3.3732    0.5431   -1.3098 O.3       1 <0>        -0.3069
     21 C15        -4.4026    1.1505   -0.5265 C.3       1 <0>         0.0241
     22 O3         -2.7367    4.8000   -3.3321 O.3       1 <0>        -0.3165
     23 C16        -2.0124    5.5740   -4.2904 C.3       1 <0>         0.0273
     24 C17        -2.8379   -1.5835   -4.6711 C.1       1 <0>         0.2726
     25 N3         -3.8904   -1.7874   -5.0469 N.1       1 <0>        -0.4397
     26 N4         -0.7254   -2.3226   -6.1591 N.pl3     1 <0>        -0.8329
     27 H3          1.0039    1.9031    0.0027 H         1 <0>         0.0557
     28 H4         -0.5459    1.8868   -0.8726 H         1 <0>         0.0615
     29 H5         -0.5289    1.8773    0.9072 H         1 <0>         0.0625
     30 H6          0.5293   -0.3651    0.8851 H         1 <0>         0.0818
     31 H7         -1.0205   -0.3814    0.0098 H         1 <0>         0.0914
     32 H8         -0.2691    1.2122   -4.5160 H         1 <0>         0.1220
     33 H9         -0.8783    3.5868   -4.7221 H         1 <0>         0.1277
     34 H10        -3.8465    3.0907   -1.6883 H         1 <0>         0.1368
     35 H11        -4.8400    0.4061    0.1388 H         1 <0>         0.1023
     36 H12        -3.9782    1.9618    0.0650 H         1 <0>         0.0589
     37 H13        -5.1748    1.5469   -1.1858 H         1 <0>         0.0563
     38 H14        -0.9519    5.5639   -4.0389 H         1 <0>         0.0571
     39 H15        -2.1544    5.1479   -5.2836 H         1 <0>         0.0565
     40 H16        -2.3785    6.6006   -4.2798 H         1 <0>         0.1008
     41 H17         0.0063   -2.6082   -6.7283 H         1 <0>         0.4106
     42 H18        -1.6427   -2.4711   -6.4372 H         1 <0>         0.4275
@<TRIPOS>BOND
     1    1    2 1
     2    1   27 1
     3    1   28 1
     4    1   29 1
     5    2    3 1
     6    2   30 1
     7    2   31 1
     8    3    8 2
     9    3    4 1
    10    4   12 1
    11    4    5 2
    12    5    6 1
    13    5    9 1
    14    6    7 1
    15    6    8 1
    16    9   10 1
    17   10   11 2
    18   10   26 1
    19   11   12 1
    20   11   24 1
    21   12   13 1
    22   12   14 1
    23   14   19 ar
    24   14   15 ar
    25   15   16 ar
    26   15   32 1
    27   16   17 ar
    28   16   33 1
    29   17   18 ar
    30   17   22 1
    31   18   19 ar
    32   18   34 1
    33   19   20 1
    34   20   21 1
    35   21   35 1
    36   21   36 1
    37   21   37 1
    38   22   23 1
    39   23   38 1
    40   23   39 1
    41   23   40 1
    42   24   25 3
    43   26   41 1
    44   26   42 1
@<TRIPOS>MOLECULE
ZINC40731954
   48    51     0     0     0
SMALL
USER_CHARGES

@<TRIPOS>ATOM
      1 C1         -1.6267   -0.1833    2.8194 C.3       1 <0>        -0.1603
      2 C2         -0.9954   -0.9959    1.6871 C.3       1 <0>         0.1761
      3 H1         -0.9208   -2.0416    1.9854 H         1 <0>         0.0609
      4 C3         -1.8611   -0.8815    0.4284 C.3       1 <0>        -0.1327
      5 C4         -1.1554   -1.5794   -0.7365 C.3       1 <0>        -0.1154
      6 C5          0.1851   -0.8927   -1.0081 C.3       1 <0>        -0.1369
      7 C6          1.0740   -1.0073    0.2343 C.3       1 <0>         0.1482
      8 N1          0.3448   -0.4711    1.3921 N.pl3     1 <0>        -0.6510
      9 C7          0.9102    0.5161    2.1903 C.ar      1 <0>         0.3802
     10 C8          1.7389    0.1739    3.2608 C.ar      1 <0>         0.0721
     11 C9          2.2810    1.2046    4.0302 C.ar      1 <0>         0.3681
     12 N2          1.9897    2.4652    3.7165 N.ar      1 <0>        -0.5297
     13 C10         1.2028    2.7449    2.6976 C.ar      1 <0>         0.2867
     14 N3          0.6746    1.8022    1.9430 N.ar      1 <0>        -0.5223
     15 N4          3.1121    0.9193    5.1076 N.pl3     1 <0>        -0.6557
     16 C11         3.5522    1.9512    5.9445 C.ar      1 <0>         0.1721
     17 C12         4.8301    1.9090    6.4866 C.ar      1 <0>        -0.1475
     18 C13         5.2643    2.9269    7.3133 C.ar      1 <0>        -0.0908
     19 C14         4.4273    3.9941    7.6036 C.ar      1 <0>         0.0291
     20 C15         3.1487    4.0406    7.0607 C.ar      1 <0>         0.0731
     21 C16         2.7139    3.0203    6.2286 C.ar      1 <0>        -0.1097
     22 O1          2.3159    5.0835    7.3280 O.3       1 <0>        -0.3044
     23 C17         2.6486    5.9006    8.4555 C.3       1 <0>         0.0205
     24 C18         4.1480    6.2214    8.3907 C.3       1 <0>         0.0207
     25 O2          4.8722    4.9868    8.4236 O.3       1 <0>        -0.3084
     26 N5          2.0188   -1.1702    3.5555 N.pl3     1 <0>        -0.8632
     27 H2         -1.6382    0.8719    2.5466 H         1 <0>         0.0671
     28 H3         -2.6476   -0.5263    2.9874 H         1 <0>         0.0670
     29 H4         -1.0440   -0.3167    3.7309 H         1 <0>         0.0522
     30 H5         -2.8261   -1.3562    0.6062 H         1 <0>         0.0670
     31 H6         -2.0119    0.1702    0.1850 H         1 <0>         0.0691
     32 H7         -0.9827   -2.6252   -0.4824 H         1 <0>         0.0602
     33 H8         -1.7805   -1.5208   -1.6274 H         1 <0>         0.0617
     34 H9          0.6766   -1.3755   -1.8528 H         1 <0>         0.0678
     35 H10         0.0151    0.1591   -1.2381 H         1 <0>         0.0682
     36 H11         1.3194   -2.0542    0.4127 H         1 <0>         0.0537
     37 H12         1.9897   -0.4359    0.0824 H         1 <0>         0.0662
     38 H13         0.9870    3.7786    2.4714 H         1 <0>         0.1935
     39 H14         3.3869    0.0050    5.2793 H         1 <0>         0.4147
     40 H15         5.4846    1.0798    6.2621 H         1 <0>         0.1323
     41 H16         6.2583    2.8919    7.7344 H         1 <0>         0.1378
     42 H17         1.7215    3.0558    5.8040 H         1 <0>         0.1442
     43 H18         2.0730    6.8256    8.4218 H         1 <0>         0.1226
     44 H19         2.4274    5.3627    9.3774 H         1 <0>         0.0774
     45 H20         4.3704    6.7536    7.4658 H         1 <0>         0.0777
     46 H21         4.4298    6.8358    9.2459 H         1 <0>         0.1219
     47 H22         1.6992   -1.8724    2.9675 H         1 <0>         0.4056
     48 H23         2.5316   -1.3965    4.3471 H         1 <0>         0.3924
@<TRIPOS>BOND
     1    1    2 1
     2    1   27 1
     3    1   28 1
     4    1   29 1
     5    2    3 1
     6    2    8 1
     7    2    4 1
     8    4    5 1
     9    4   30 1
    10    4   31 1
    11    5    6 1
    12    5   32 1
    13    5   33 1
    14    6    7 1
    15    6   34 1
    16    6   35 1
    17    7    8 1
    18    7   36 1
    19    7   37 1
    20    8    9 1
    21    9   14 ar
    22    9   10 ar
    23   10   11 ar
    24   10   26 1
    25   11   12 ar
    26   11   15 1
    27   12   13 ar
    28   13   14 ar
    29   13   38 1
    30   15   16 1
    31   15   39 1
    32   16   21 ar
    33   16   17 ar
    34   17   18 ar
    35   17   40 1
    36   18   19 ar
    37   18   41 1
    38   19   25 1
    39   19   20 ar
    40   20   21 ar
    41   20   22 1
    42   21   42 1
    43   22   23 1
    44   23   24 1
    45   23   43 1
    46   23   44 1
    47   24   25 1
    48   24   45 1
    49   24   46 1
    50   26   47 1
    51   26   48 1
@<TRIPOS>MOLECULE
ZINC54501406
   41    44     0     0     0
SMALL
USER_CHARGES

@<TRIPOS>ATOM
      1 C1         -1.5793    0.7853    0.2487 C.3       1 <0>        -0.1526
      2 C2         -0.2471    0.1155    0.0303 C.2       1 <0>         0.3570
      3 C3          0.7911    0.3384    0.9139 C.2       1 <0>        -0.3414
      4 C4          2.1489   -0.1728    0.6507 C.2       1 <0>         0.5595
      5 O1          2.3929   -0.8078   -0.3580 O.2       1 <0>        -0.4659
      6 N1          3.1134    0.0833    1.5584 N.am      1 <0>        -0.6154
      7 C5          2.8585    0.7819    2.6735 C.2       1 <0>         0.5467
      8 S1          4.1453    1.0585    3.7684 S.2       1 <0>        -0.5047
      9 N2          1.6500    1.2760    2.9770 N.am      1 <0>        -0.6146
     10 C6          0.5916    1.1029    2.1588 C.2       1 <0>         0.5672
     11 O2         -0.4991    1.5612    2.4426 O.2       1 <0>        -0.4667
     12 N3         -0.0682   -0.7029   -1.0297 N.pl3     1 <0>        -0.6562
     13 C7         -0.1858   -0.2032   -2.3209 C.ar      1 <0>         0.2442
     14 C8         -0.3432    1.1668   -2.5316 C.ar      1 <0>        -0.1610
     15 C9         -0.4612    1.6663   -3.8112 C.ar      1 <0>        -0.0486
     16 C10        -0.4254    0.8167   -4.9071 C.ar      1 <0>        -0.1001
     17 C11        -0.2687   -0.5512   -4.7210 C.ar      1 <0>        -0.0760
     18 C12        -0.1414   -1.0698   -3.4174 C.ar      1 <0>        -0.1775
     19 C13         0.0319   -2.5213   -3.2213 C.2       1 <0>         0.4486
     20 O3         -0.1109   -3.0141   -2.1192 O.2       1 <0>        -0.4460
     21 C14         0.3811   -3.3708   -4.3813 C.ar      1 <0>        -0.1192
     22 C15         0.8287   -4.6742   -4.1949 C.ar      1 <0>        -0.0660
     23 C16         1.1509   -5.4547   -5.2918 C.ar      1 <0>        -0.0977
     24 C17         1.0307   -4.9475   -6.5729 C.ar      1 <0>        -0.0956
     25 C18         0.5868   -3.6524   -6.7761 C.ar      1 <0>        -0.0677
     26 C19         0.2594   -2.8546   -5.6846 C.ar      1 <0>        -0.1196
     27 C20        -0.2276   -1.4687   -5.8805 C.2       1 <0>         0.4359
     28 O4         -0.5750   -1.0862   -6.9803 O.2       1 <0>        -0.4186
     29 H1         -1.4391    1.8650    0.2997 H         1 <0>         0.1093
     30 H2         -2.2471    0.5443   -0.5784 H         1 <0>         0.0860
     31 H3         -2.0153    0.4310    1.1828 H         1 <0>         0.1192
     32 H4          4.0120   -0.2461    1.4006 H         1 <0>         0.4483
     33 H5          1.5349    1.7729    3.8021 H         1 <0>         0.4497
     34 H6          0.1425   -1.6393   -0.8894 H         1 <0>         0.4370
     35 H7         -0.3731    1.8399   -1.6875 H         1 <0>         0.1390
     36 H8         -0.5830    2.7288   -3.9617 H         1 <0>         0.1468
     37 H9         -0.5197    1.2186   -5.9051 H         1 <0>         0.1480
     38 H10         0.9250   -5.0763   -3.1971 H         1 <0>         0.1434
     39 H11         1.4990   -6.4666   -5.1462 H         1 <0>         0.1400
     40 H12         1.2853   -5.5663   -7.4206 H         1 <0>         0.1404
     41 H13         0.4952   -3.2623   -7.7790 H         1 <0>         0.1449
@<TRIPOS>BOND
     1    1    2 1
     2    1   29 1
     3    1   30 1
     4    1   31 1
     5    2    3 2
     6    2   12 1
     7    3   10 1
     8    3    4 1
     9    4    5 2
    10    4    6 am
    11    6    7 1
    12    6   32 1
    13    7    8 2
    14    7    9 1
    15    9   10 am
    16    9   33 1
    17   10   11 2
    18   12   13 1
    19   12   34 1
    20   13   18 ar
    21   13   14 ar
    22   14   15 ar
    23   14   35 1
    24   15   16 ar
    25   15   36 1
    26   16   17 ar
    27   16   37 1
    28   17   27 1
    29   17   18 ar
    30   18   19 1
    31   19   20 2
    32   19   21 1
    33   21   26 ar
    34   21   22 ar
    35   22   23 ar
    36   22   38 1
    37   23   24 ar
    38   23   39 1
    39   24   25 ar
    40   24   40 1
    41   25   26 ar
    42   25   41 1
    43   26   27 1
    44   27   28 2
@<TRIPOS>MOLECULE
ZINC15085108
   44    47     0     0     0
SMALL
USER_CHARGES

@<TRIPOS>ATOM
      1 C1         -0.3413    1.5714    0.4993 C.3       1 <0>         0.0240
      2 O1         -0.3918    0.1514    0.6507 O.3       1 <0>        -0.3065
      3 C2         -1.6196   -0.4314    0.6021 C.ar      1 <0>         0.1082
      4 C3         -2.7500    0.3459    0.4072 C.ar      1 <0>        -0.1882
      5 C4         -3.9972   -0.2481    0.3576 C.ar      1 <0>        -0.0474
      6 C5         -4.1203   -1.6175    0.5026 C.ar      1 <0>        -0.1313
      7 C6         -2.9967   -2.3988    0.6978 C.ar      1 <0>        -0.1006
      8 C7         -1.7429   -1.8104    0.7423 C.ar      1 <0>         0.0747
      9 O2         -0.6360   -2.5782    0.9283 O.3       1 <0>        -0.4863
     10 C8         -5.2255    0.5989    0.1455 C.3       1 <0>         0.0425
     11 H1         -4.9381    1.6462    0.0531 H         1 <0>         0.1009
     12 C9         -6.1816    0.4282    1.3306 C.3       1 <0>        -0.1314
     13 C10        -6.9021   -0.8887    1.2628 C.2       1 <0>         0.5388
     14 O3         -7.1037   -1.5017    2.2898 O.2       1 <0>        -0.5065
     15 N1         -7.3326   -1.4105    0.0945 N.am      1 <0>        -0.6515
     16 C11        -6.9237   -0.7972   -1.0894 C.2       1 <0>         0.3522
     17 C12        -5.9387    0.1553   -1.1064 C.2       1 <0>        -0.2998
     18 C13        -5.7677    0.5742   -2.4230 C.2       1 <0>         0.3716
     19 N2         -6.6008   -0.1083   -3.1804 N.2       1 <0>        -0.3160
     20 N3         -7.3317   -0.9855   -2.3585 N.pl3     1 <0>        -0.4682
     21 H2         -8.0092   -1.6140   -2.6534 H         1 <0>         0.4440
     22 N4         -4.8671    1.5507   -2.8646 N.pl3     1 <0>        -0.6451
     23 C14        -4.8776    1.9574   -4.2011 C.ar      1 <0>         0.1719
     24 C15        -3.7085    2.4087   -4.8008 C.ar      1 <0>        -0.1601
     25 C16        -3.7224    2.8094   -6.1222 C.ar      1 <0>        -0.0922
     26 C17        -4.8984    2.7624   -6.8484 C.ar      1 <0>        -0.1481
     27 C18        -6.0640    2.3141   -6.2545 C.ar      1 <0>        -0.0917
     28 C19        -6.0560    1.9060   -4.9353 C.ar      1 <0>        -0.1416
     29 H3          0.6943    1.9064    0.5575 H         1 <0>         0.1022
     30 H4         -0.7590    1.8487   -0.4686 H         1 <0>         0.0560
     31 H5         -0.9207    2.0423    1.2934 H         1 <0>         0.0568
     32 H6         -2.6566    1.4160    0.2943 H         1 <0>         0.1343
     33 H7         -5.0965   -2.0779    0.4636 H         1 <0>         0.1193
     34 H8         -3.0956   -3.4683    0.8112 H         1 <0>         0.1352
     35 H9         -0.3961   -2.7041    1.8566 H         1 <0>         0.3874
     36 H10        -5.6121    0.4764    2.2588 H         1 <0>         0.1159
     37 H11        -6.9127    1.2365    1.3190 H         1 <0>         0.1141
     38 H12        -7.9097   -2.1900    0.0790 H         1 <0>         0.4167
     39 H13        -4.2358    1.9450   -2.2427 H         1 <0>         0.4193
     40 H14        -2.7899    2.4463   -4.2340 H         1 <0>         0.1223
     41 H15        -2.8139    3.1604   -6.5890 H         1 <0>         0.1241
     42 H16        -4.9065    3.0767   -7.8816 H         1 <0>         0.1211
     43 H17        -6.9808    2.2793   -6.8243 H         1 <0>         0.1229
     44 H18        -6.9658    1.5518   -4.4733 H         1 <0>         0.1361
@<TRIPOS>BOND
     1    1    2 1
     2    1   29 1
     3    1   30 1
     4    1   31 1
     5    2    3 1
     6    3    8 ar
     7    3    4 ar
     8    4    5 ar
     9    4   32 1
    10    5    6 ar
    11    5   10 1
    12    6    7 ar
    13    6   33 1
    14    7    8 ar
    15    7   34 1
    16    8    9 1
    17    9   35 1
    18   10   11 1
    19   10   17 1
    20   10   12 1
    21   12   13 1
    22   12   36 1
    23   12   37 1
    24   13   14 2
    25   13   15 am
    26   15   16 1
    27   15   38 1
    28   16   20 1
    29   16   17 2
    30   17   18 1
    31   18   19 2
    32   18   22 1
    33   19   20 1
    34   20   21 1
    35   22   23 1
    36   22   39 1
    37   23   28 ar
    38   23   24 ar
    39   24   25 ar
    40   24   40 1
    41   25   26 ar
    42   25   41 1
    43   26   27 ar
    44   26   42 1
    45   27   28 ar
    46   27   43 1
    47   28   44 1
@<TRIPOS>MOLECULE
ZINC14475052
   47    51     0     0     0
SMALL
USER_CHARGES
(3aR,4S,9bS)-4-(2-naphthyl)-3a,4,5,9b-tetrahydro-3H-cyclopenta[c]quinoline-8-sulfonamide
@<TRIPOS>ATOM
      1 C1          3.4125    2.1811   -0.3041 C.ar      1 <0>        -0.1156
      2 C2          4.6086    1.5435   -0.6282 C.ar      1 <0>        -0.1160
      3 C3          4.6961    0.1855   -0.6470 C.ar      1 <0>        -0.1064
      4 C4          3.5652   -0.5885   -0.3354 C.ar      1 <0>        -0.0463
      5 C5          3.6168   -1.9929   -0.3446 C.ar      1 <0>        -0.0899
      6 C6          2.5017   -2.7097   -0.0367 C.ar      1 <0>        -0.0884
      7 C7          1.3054   -2.0721    0.2870 C.ar      1 <0>        -0.1015
      8 C8          1.2180   -0.7141    0.3058 C.ar      1 <0>        -0.1057
      9 C9          2.3489    0.0599   -0.0058 C.ar      1 <0>        -0.0510
     10 C10         2.2971    1.4643    0.0027 C.ar      1 <0>        -0.1090
     11 C11         2.5612   -4.2155   -0.0462 C.3       1 <0>         0.1967
     12 H1          1.5828   -4.6178   -0.3090 H         1 <0>         0.1021
     13 C12         2.9678   -4.7215    1.3407 C.3       1 <0>        -0.0971
     14 H2          2.8797   -5.8038    1.4349 H         1 <0>         0.1014
     15 C13         2.1114   -3.9477    2.3858 C.3       1 <0>        -0.0950
     16 C14         2.8574   -2.6377    2.5505 C.2       1 <0>        -0.1557
     17 C15         4.1068   -2.7710    2.1772 C.2       1 <0>        -0.1540
     18 C16         4.3644   -4.1831    1.7081 C.3       1 <0>        -0.0121
     19 H3          4.7774   -4.7702    2.5283 H         1 <0>         0.0945
     20 C17         5.3218   -4.2119    0.5594 C.ar      1 <0>        -0.1574
     21 C18         6.6705   -3.9982    0.8100 C.ar      1 <0>         0.0237
     22 C19         7.5873   -4.0175   -0.2211 C.ar      1 <0>        -0.7232
     23 C20         7.1722   -4.2509   -1.5197 C.ar      1 <0>         0.0220
     24 C21         5.8338   -4.4649   -1.7816 C.ar      1 <0>        -0.2098
     25 C22         4.9102   -4.4449   -0.7439 C.ar      1 <0>         0.2752
     26 N1          3.5572   -4.6614   -1.0260 N.pl3     1 <0>        -0.7357
     27 S1          9.2946   -3.7440    0.1181 S.o2      1 <0>         2.7013
     28 O1          9.8777   -3.2709   -1.0883 O.2       1 <0>        -0.9682
     29 O2          9.3547   -3.0090    1.3327 O.2       1 <0>        -0.9677
     30 N2          9.9756   -5.2220    0.4251 N.pl3     1 <0>        -1.2519
     31 H4          3.3701    3.2603   -0.2962 H         1 <0>         0.1224
     32 H5          5.4804    2.1359   -0.8637 H         1 <0>         0.1230
     33 H6          5.6296   -0.2949   -0.9004 H         1 <0>         0.1235
     34 H7          4.5369   -2.5007   -0.5938 H         1 <0>         0.1329
     35 H8          0.4348   -2.6645    0.5269 H         1 <0>         0.1211
     36 H9          0.2843   -0.2337    0.5585 H         1 <0>         0.1255
     37 H10         1.3769    1.9720    0.2516 H         1 <0>         0.1252
     38 H11         1.1058   -3.7717    2.0038 H         1 <0>         0.0762
     39 H12         2.0752   -4.4905    3.3303 H         1 <0>         0.0804
     40 H13         2.4203   -1.7230    2.9228 H         1 <0>         0.1239
     41 H14         4.8460   -1.9840    2.2019 H         1 <0>         0.1244
     42 H15         7.0050   -3.8157    1.8205 H         1 <0>         0.1402
     43 H16         7.8917   -4.2653   -2.3250 H         1 <0>         0.1429
     44 H17         5.5044   -4.6479   -2.7937 H         1 <0>         0.1335
     45 H18         3.2845   -5.0957   -1.8494 H         1 <0>         0.4100
     46 H19         9.4300   -6.0233    0.3939 H         1 <0>         0.4161
     47 H20        10.9202   -5.2863    0.6361 H         1 <0>         0.4196
@<TRIPOS>BOND
     1    1   10 ar
     2    1    2 ar
     3    1   31 1
     4    2    3 ar
     5    2   32 1
     6    3    4 ar
     7    3   33 1
     8    4    9 ar
     9    4    5 ar
    10    5    6 ar
    11    5   34 1
    12    6    7 ar
    13    6   11 1
    14    7    8 ar
    15    7   35 1
    16    8    9 ar
    17    8   36 1
    18    9   10 ar
    19   10   37 1
    20   11   12 1
    21   11   26 1
    22   11   13 1
    23   13   14 1
    24   13   18 1
    25   13   15 1
    26   15   16 1
    27   15   38 1
    28   15   39 1
    29   16   17 2
    30   16   40 1
    31   17   18 1
    32   17   41 1
    33   18   19 1
    34   18   20 1
    35   20   25 ar
    36   20   21 ar
    37   21   22 ar
    38   21   42 1
    39   22   23 ar
    40   22   27 1
    41   23   24 ar
    42   23   43 1
    43   24   25 ar
    44   24   44 1
    45   25   26 1
    46   26   45 1
    47   27   28 2
    48   27   29 2
    49   27   30 1
    50   30   46 1
    51   30   47 1
@<TRIPOS>MOLECULE
ZINC21807236
   33    34     0     0     0
SMALL
USER_CHARGES
3-amino-4-chloro-N-(3-methylsulfanylphenyl)benzenesulfonamide
@<TRIPOS>ATOM
      1 C1         -0.0127    1.0858    0.0080 C.3       1 <0>        -0.1474
      2 S1         -0.8618    1.6708    1.5005 S.3       1 <0>        -0.1153
      3 C2         -0.8030    3.4265    1.3638 C.ar      1 <0>        -0.0663
      4 C3         -0.1890    4.0192    0.2659 C.ar      1 <0>        -0.1430
      5 C4         -0.1435    5.3953    0.1578 C.ar      1 <0>        -0.0746
      6 C5         -0.7069    6.1878    1.1398 C.ar      1 <0>        -0.1599
      7 C6         -1.3216    5.6022    2.2399 C.ar      1 <0>         0.1685
      8 C7         -1.3745    4.2198    2.3493 C.ar      1 <0>        -0.1115
      9 N1         -1.8912    6.4042    3.2315 N.pl3     1 <0>        -1.0684
     10 S2         -2.8326    7.6996    2.8095 S.o2      1 <0>         2.6945
     11 O1         -3.2797    8.2892    4.0226 O.2       1 <0>        -0.9486
     12 O2         -2.1048    8.4289    1.8309 O.2       1 <0>        -0.9447
     13 C8         -4.2633    7.0626    2.0019 C.ar      1 <0>        -0.6214
     14 C9         -4.2608    6.8856    0.6304 C.ar      1 <0>        -0.0717
     15 C10        -5.3795    6.3816   -0.0070 C.ar      1 <0>        -0.0771
     16 C11        -6.5082    6.0628    0.7242 C.ar      1 <0>        -0.0713
     17 C12        -6.5154    6.2447    2.1021 C.ar      1 <0>         0.2237
     18 C13        -5.3878    6.7462    2.7390 C.ar      1 <0>        -0.0946
     19 N2         -7.6546    5.9231    2.8450 N.pl3     1 <0>        -0.8904
     20 Cl1        -7.9147    5.4357   -0.0772 Cl        1 <0>        -0.0588
     21 H1          0.0022   -0.0141    0.0020 H         1 <0>         0.1120
     22 H2          1.0193    1.4666    0.0002 H         1 <0>         0.0868
     23 H3         -0.5447    1.4502   -0.8831 H         1 <0>         0.0864
     24 H4          0.2523    3.4027   -0.5033 H         1 <0>         0.1264
     25 H5          0.3333    5.8531   -0.6963 H         1 <0>         0.1345
     26 H6         -0.6698    7.2636    1.0519 H         1 <0>         0.1607
     27 H7         -1.8559    3.7622    3.2009 H         1 <0>         0.1332
     28 H8         -1.7144    6.1753    4.2928 H         1 <0>         0.4564
     29 H9         -3.3816    7.1381    0.0563 H         1 <0>         0.1450
     30 H10        -5.3728    6.2407   -1.0778 H         1 <0>         0.1421
     31 H11        -5.3902    6.8891    3.8095 H         1 <0>         0.1459
     32 H12        -7.6590    6.0675    3.9355 H         1 <0>         0.4258
     33 H13        -8.5469    5.5255    2.3393 H         1 <0>         0.4233
@<TRIPOS>BOND
     1    1    2 1
     2    1   21 1
     3    1   22 1
     4    1   23 1
     5    2    3 1
     6    3    8 ar
     7    3    4 ar
     8    4    5 ar
     9    4   24 1
    10    5    6 ar
    11    5   25 1
    12    6    7 ar
    13    6   26 1
    14    7    8 ar
    15    7    9 1
    16    8   27 1
    17    9   10 1
    18    9   28 1
    19   10   11 2
    20   10   12 2
    21   10   13 1
    22   13   18 ar
    23   13   14 ar
    24   14   15 ar
    25   14   29 1
    26   15   16 ar
    27   15   30 1
    28   16   17 ar
    29   16   20 1
    30   17   18 ar
    31   17   19 1
    32   18   31 1
    33   19   32 1
    34   19   33 1
@<TRIPOS>MOLECULE
ZINC36961622
   26    27     0     0     0
SMALL
USER_CHARGES

@<TRIPOS>ATOM
      1 C1          0.0320    0.9392   -0.0390 C.ar      1 <0>        -0.1830
      2 C2          1.1496    1.7501   -0.0601 C.ar      1 <0>        -0.0738
      3 C3          2.4173    1.1870    0.0037 C.ar      1 <0>         0.0745
      4 C4          2.5612   -0.1915    0.0886 C.ar      1 <0>        -0.0948
      5 C5          1.4436   -1.0024    0.1096 C.ar      1 <0>        -0.1761
      6 C6          0.1759   -0.4393    0.0458 C.ar      1 <0>         0.2143
      7 N1         -0.9571   -1.2614    0.0675 N.pl3     1 <0>        -0.8773
      8 N2          3.5503    2.0091   -0.0181 N.pl3     1 <0>        -1.0463
      9 S1          4.7779    1.7559    1.0641 S.o2      1 <0>         2.6977
     10 O1          5.1314    0.3832    0.9634 O.2       1 <0>        -0.9400
     11 O2          5.7188    2.8015    0.8628 O.2       1 <0>        -0.9373
     12 C7          4.1065    1.9860    2.6768 C.2       1 <0>        -0.6842
     13 C8          4.0480    0.9315    3.5702 C.2       1 <0>        -0.0699
     14 C9          3.5255    1.1435    4.8035 C.2       1 <0>        -0.1254
     15 S2          3.0949    2.8745    4.7302 S.3       1 <0>         0.2130
     16 C10         3.6444    3.2009    3.0633 C.2       1 <0>        -0.0193
     17 Cl1         3.5979    4.6878    2.1685 Cl        1 <0>         0.0589
     18 Cl2         3.3265    0.0223    6.1138 Cl        1 <0>         0.0384
     19 H1         -0.9541    1.3774   -0.0841 H         1 <0>         0.1258
     20 H2          1.0376    2.8222   -0.1264 H         1 <0>         0.1279
     21 H3          3.5472   -0.6295    0.1378 H         1 <0>         0.1540
     22 H4          1.5556   -2.0745    0.1756 H         1 <0>         0.1283
     23 H5         -1.8426   -0.8680    0.0233 H         1 <0>         0.3992
     24 H6         -0.8565   -2.2243    0.1268 H         1 <0>         0.3999
     25 H7          3.6162    2.7270   -0.6670 H         1 <0>         0.4263
     26 H8          4.4125   -0.0457    3.2897 H         1 <0>         0.1690
@<TRIPOS>BOND
     1    1    6 ar
     2    1    2 ar
     3    1   19 1
     4    2    3 ar
     5    2   20 1
     6    3    4 ar
     7    3    8 1
     8    4    5 ar
     9    4   21 1
    10    5    6 ar
    11    5   22 1
    12    6    7 1
    13    7   23 1
    14    7   24 1
    15    8    9 1
    16    8   25 1
    17    9   10 2
    18    9   11 2
    19    9   12 1
    20   12   16 2
    21   12   13 1
    22   13   14 2
    23   13   26 1
    24   14   15 1
    25   14   18 1
    26   15   16 1
    27   16   17 1
@<TRIPOS>MOLECULE
ZINC43510355
   56    58     0     0     0
SMALL
USER_CHARGES

@<TRIPOS>ATOM
      1 C1         -1.5133    0.7838   -0.4758 C.3       1 <0>        -0.1633
      2 C2         -0.8672   -0.5392   -0.0611 C.3       1 <0>        -0.1129
      3 H1         -0.0553   -0.7809   -0.7412 H         1 <0>         0.0922
      4 C3         -1.9182   -1.6508   -0.0828 C.3       1 <0>        -0.1476
      5 C4         -1.2449   -2.9769    0.2759 C.3       1 <0>         0.1122
      6 H2         -2.0551   -3.7204    0.2886 H         1 <0>         0.0439
      7 C5         -0.5552   -2.9310    1.6378 C.3       1 <0>        -0.0363
      8 H3         -1.3554   -2.8188    2.3994 H         1 <0>         0.0808
      9 C6          0.1316   -4.2646    1.9114 C.3       1 <0>        -0.0352
     10 C7          1.4667   -4.4028    1.1912 C.3       1 <0>        -0.0952
     11 C8          2.3623   -3.1889    1.3890 C.3       1 <0>        -0.1155
     12 C9          1.6368   -1.9152    0.9538 C.3       1 <0>        -0.1132
     13 C10         0.3678   -1.7284    1.7784 C.3       1 <0>        -0.0144
     14 C11        -0.3477   -0.4333    1.3695 C.3       1 <0>         0.1488
     15 C12         0.5981    0.7610    1.4932 C.3       1 <0>        -0.1408
     16 C13         1.4296    0.8876    0.2151 C.3       1 <0>        -0.0752
     17 C14         2.3833    2.0467    0.3489 C.2       1 <0>        -0.1751
     18 C15         2.1318    3.3906   -0.0114 C.2       1 <0>        -0.2126
     19 C16         3.2467    4.0862    0.2759 C.2       1 <0>        -0.0408
     20 O1          4.1549    3.2398    0.7882 O.3       1 <0>        -0.1777
     21 C17         3.6350    2.0025    0.8395 C.2       1 <0>        -0.0439
     22 O2         -1.4568   -0.2285    2.2569 O.3       1 <0>        -0.5571
     23 C18         0.7655   -1.5069    3.2512 C.3       1 <0>        -0.1569
     24 C19         0.3269   -4.5050    3.4145 C.3       1 <0>        -0.1516
     25 C20        -0.7704   -5.4226    1.4255 C.3       1 <0>         0.0770
     26 O3         -0.1238   -6.6706    1.6835 O.3       1 <0>        -0.5688
     27 O4         -0.3225   -3.3220   -0.7568 O.3       1 <0>        -0.5524
     28 H4         -0.8376    1.6068   -0.2432 H         1 <0>         0.0665
     29 H5         -1.7139    0.7701   -1.5471 H         1 <0>         0.0572
     30 H6         -2.4489    0.9172    0.0673 H         1 <0>         0.0543
     31 H7         -2.7061   -1.4323    0.6347 H         1 <0>         0.0780
     32 H8         -2.3480   -1.7226   -1.0829 H         1 <0>         0.0619
     33 H9          1.9853   -5.2907    1.5832 H         1 <0>         0.0558
     34 H10         1.3016   -4.5717    0.1251 H         1 <0>         0.0744
     35 H11         2.6869   -3.1141    2.4230 H         1 <0>         0.0584
     36 H12         3.2601   -3.3052    0.7651 H         1 <0>         0.0546
     37 H13         2.3194   -1.0745    1.1070 H         1 <0>         0.0639
     38 H14         1.3947   -1.9773   -0.1057 H         1 <0>         0.0824
     39 H15         0.0167    1.6713    1.6400 H         1 <0>         0.0664
     40 H16         1.2616    0.6123    2.3451 H         1 <0>         0.0796
     41 H17         1.9944   -0.0311    0.0566 H         1 <0>         0.0913
     42 H18         0.7674    1.0580   -0.6338 H         1 <0>         0.0813
     43 H19         1.2198    3.7831   -0.4363 H         1 <0>         0.1448
     44 H20         3.3877    5.1456    0.1206 H         1 <0>         0.2005
     45 H21         4.1375    1.1211    1.2096 H         1 <0>         0.1985
     46 H22        -1.9643    0.5739    2.0735 H         1 <0>         0.3702
     47 H23         1.4597   -2.2879    3.5615 H         1 <0>         0.0626
     48 H24         1.2438   -0.5331    3.3559 H         1 <0>         0.0603
     49 H25        -0.1258   -1.5432    3.8777 H         1 <0>         0.0616
     50 H26        -0.6356   -4.4365    3.9215 H         1 <0>         0.0476
     51 H27         0.7506   -5.4968    3.5718 H         1 <0>         0.0641
     52 H28         1.0043   -3.7523    3.8178 H         1 <0>         0.0632
     53 H29        -1.7217   -5.3897    1.9567 H         1 <0>         0.0358
     54 H30        -0.9483   -5.3201    0.3550 H         1 <0>         0.0508
     55 H31        -0.6337   -7.4430    1.4037 H         1 <0>         0.3759
     56 H32        -0.7291   -3.4291   -1.6276 H         1 <0>         0.3699
@<TRIPOS>BOND
     1    1    2 1
     2    1   28 1
     3    1   29 1
     4    1   30 1
     5    2    3 1
     6    2   14 1
     7    2    4 1
     8    4    5 1
     9    4   31 1
    10    4   32 1
    11    5    6 1
    12    5    7 1
    13    5   27 1
    14    7    8 1
    15    7   13 1
    16    7    9 1
    17    9   10 1
    18    9   24 1
    19    9   25 1
    20   10   11 1
    21   10   33 1
    22   10   34 1
    23   11   12 1
    24   11   35 1
    25   11   36 1
    26   12   13 1
    27   12   37 1
    28   12   38 1
    29   13   14 1
    30   13   23 1
    31   14   15 1
    32   14   22 1
    33   15   16 1
    34   15   39 1
    35   15   40 1
    36   16   17 1
    37   16   41 1
    38   16   42 1
    39   17   21 2
    40   17   18 1
    41   18   19 2
    42   18   43 1
    43   19   20 1
    44   19   44 1
    45   20   21 1
    46   21   45 1
    47   22   46 1
    48   23   47 1
    49   23   48 1
    50   23   49 1
    51   24   50 1
    52   24   51 1
    53   24   52 1
    54   25   26 1
    55   25   53 1
    56   25   54 1
    57   26   55 1
    58   27   56 1
@<TRIPOS>MOLECULE
ZINC13571048
   47    50     0     0     0
SMALL
USER_CHARGES

@<TRIPOS>ATOM
      1 C1          0.0718    1.5231    0.0627 C.3       1 <0>        -0.1562
      2 C2          0.0021   -0.0041    0.0020 C.3       1 <0>         0.1444
      3 C3         -1.4642   -0.4488   -0.0304 C.3       1 <0>        -0.1199
      4 C4         -1.5112   -1.9777    0.0322 C.3       1 <0>         0.3156
      5 C5         -2.9694   -2.4415    0.1154 C.3       1 <0>        -0.1415
      6 C6         -2.9818   -3.9626    0.2867 C.3       1 <0>        -0.0048
      7 H1         -2.6496   -4.2168    1.2933 H         1 <0>         0.0927
      8 C7         -2.0568   -4.5959   -0.7216 C.ar      1 <0>        -0.1616
      9 C8         -2.1928   -5.9483   -0.9913 C.ar      1 <0>        -0.0536
     10 C9         -1.3618   -6.5654   -1.9041 C.ar      1 <0>        -0.1692
     11 C10        -0.3829   -5.8297   -2.5574 C.ar      1 <0>         0.1445
     12 C11        -0.2454   -4.4777   -2.2923 C.ar      1 <0>        -0.1717
     13 C12        -1.0848   -3.8570   -1.3738 C.ar      1 <0>         0.1439
     14 O1         -0.9255   -2.5266   -1.1473 O.3       1 <0>        -0.3017
     15 O2          0.4383   -6.4347   -3.4554 O.3       1 <0>        -0.4945
     16 C13        -4.3815   -4.4795    0.0753 C.ar      1 <0>        -0.0771
     17 C14        -5.0169   -4.2787   -1.1358 C.ar      1 <0>        -0.1057
     18 C15        -6.3008   -4.7528   -1.3297 C.ar      1 <0>        -0.1169
     19 C16        -6.9492   -5.4281   -0.3127 C.ar      1 <0>        -0.1170
     20 C17        -6.3135   -5.6297    0.8982 C.ar      1 <0>        -0.1158
     21 C18        -5.0280   -5.1593    1.0906 C.ar      1 <0>        -0.1129
     22 N1         -0.7802   -2.4386    1.2119 N.pl3     1 <0>        -0.6785
     23 C19         0.2441   -1.7335    1.7161 C.2       1 <0>         0.5925
     24 S1          1.0645   -2.3423    3.0899 S.2       1 <0>        -0.6512
     25 N2          0.6506   -0.5707    1.1856 N.pl3     1 <0>        -0.6598
     26 C20         0.7155   -0.4987   -1.2578 C.3       1 <0>        -0.1631
     27 H2          1.1149    1.8384    0.0909 H         1 <0>         0.0726
     28 H3         -0.4113    1.9442   -0.8190 H         1 <0>         0.0828
     29 H4         -0.4384    1.8748    0.9594 H         1 <0>         0.0688
     30 H5         -1.9926   -0.0309    0.8265 H         1 <0>         0.1049
     31 H6         -1.9304   -0.1058   -0.9541 H         1 <0>         0.1160
     32 H7         -3.4561   -1.9716    0.9701 H         1 <0>         0.0995
     33 H8         -3.4938   -2.1708   -0.8011 H         1 <0>         0.1030
     34 H9         -2.9535   -6.5229   -0.4838 H         1 <0>         0.1314
     35 H10        -1.4729   -7.6199   -2.1095 H         1 <0>         0.1332
     36 H11         0.5155   -3.9038   -2.8002 H         1 <0>         0.1365
     37 H12         0.1044   -6.4244   -4.3629 H         1 <0>         0.3952
     38 H13        -4.5103   -3.7511   -1.9305 H         1 <0>         0.1191
     39 H14        -6.7975   -4.5954   -2.2758 H         1 <0>         0.1230
     40 H15        -7.9526   -5.7979   -0.4639 H         1 <0>         0.1231
     41 H16        -6.8202   -6.1570    1.6929 H         1 <0>         0.1246
     42 H17        -4.5299   -5.3200    2.0354 H         1 <0>         0.1240
     43 H18        -1.0410   -3.2699    1.6384 H         1 <0>         0.4297
     44 H19         1.3904   -0.0951    1.5949 H         1 <0>         0.4321
     45 H20         1.7077   -0.0507   -1.3131 H         1 <0>         0.0637
     46 H21         0.8085   -1.5841   -1.2203 H         1 <0>         0.0803
     47 H22         0.1386   -0.2137   -2.1377 H         1 <0>         0.0754
@<TRIPOS>BOND
     1    1    2 1
     2    1   27 1
     3    1   28 1
     4    1   29 1
     5    2   25 1
     6    2    3 1
     7    2   26 1
     8    3    4 1
     9    3   30 1
    10    3   31 1
    11    4   14 1
    12    4    5 1
    13    4   22 1
    14    5    6 1
    15    5   32 1
    16    5   33 1
    17    6    7 1
    18    6    8 1
    19    6   16 1
    20    8   13 ar
    21    8    9 ar
    22    9   10 ar
    23    9   34 1
    24   10   11 ar
    25   10   35 1
    26   11   12 ar
    27   11   15 1
    28   12   13 ar
    29   12   36 1
    30   13   14 1
    31   15   37 1
    32   16   21 ar
    33   16   17 ar
    34   17   18 ar
    35   17   38 1
    36   18   19 ar
    37   18   39 1
    38   19   20 ar
    39   19   40 1
    40   20   21 ar
    41   20   41 1
    42   21   42 1
    43   22   23 1
    44   22   43 1
    45   23   24 2
    46   23   25 1
    47   25   44 1
    48   26   45 1
    49   26   46 1
    50   26   47 1
@<TRIPOS>MOLECULE
ZINC13636499
   44    47     0     0     0
SMALL
USER_CHARGES
N-[(3aS,4R,9bS)-4-(4-hydroxyphenyl)-3a,4,5,9b-tetrahydro-3H-cyclopenta[c]quinolin-8-yl]acetamide
@<TRIPOS>ATOM
      1 C1         -8.8267    6.9948    1.5632 C.3       1 <0>        -0.1706
      2 C2         -7.9925    5.8501    1.0483 C.2       1 <0>         0.5079
      3 O1         -8.4664    5.0622    0.2572 O.2       1 <0>        -0.5298
      4 N1         -6.7201    5.7019    1.4670 N.am      1 <0>        -0.6708
      5 C3         -5.9103    4.7038    0.9083 C.ar      1 <0>         0.0894
      6 C4         -6.0683    4.3435   -0.4235 C.ar      1 <0>        -0.0734
      7 C5         -5.2769    3.3558   -0.9711 C.ar      1 <0>        -0.1736
      8 C6         -4.3153    2.7153   -0.1987 C.ar      1 <0>         0.2045
      9 C7         -4.1497    3.0913    1.1389 C.ar      1 <0>        -0.1174
     10 C8         -4.9484    4.0723    1.6848 C.ar      1 <0>        -0.0924
     11 C9         -3.0854    2.4147    1.9118 C.3       1 <0>        -0.0389
     12 H1         -2.1338    2.8830    1.6605 H         1 <0>         0.0973
     13 C10        -3.1556    2.2781    3.3895 C.2       1 <0>        -0.1483
     14 C11        -2.5433    1.1539    3.7410 C.2       1 <0>        -0.1677
     15 C12        -2.0368    0.4229    2.4961 C.3       1 <0>        -0.0911
     16 C13        -3.0036    0.9380    1.4213 C.3       1 <0>        -0.1019
     17 H2         -3.9730    0.4414    1.4639 H         1 <0>         0.0969
     18 C14        -2.4814    1.0122   -0.0022 C.3       1 <0>         0.2062
     19 H3         -2.3188    0.0099   -0.3986 H         1 <0>         0.1010
     20 N2         -3.5347    1.7037   -0.7771 N.pl3     1 <0>        -0.7444
     21 C15        -1.1991    1.8028   -0.0458 C.ar      1 <0>        -0.1086
     22 C16        -1.2384    3.1715   -0.2372 C.ar      1 <0>        -0.0841
     23 C17        -0.0647    3.8993   -0.2715 C.ar      1 <0>        -0.1469
     24 C18         1.1544    3.2549   -0.1193 C.ar      1 <0>         0.1072
     25 C19         1.1914    1.8806    0.0669 C.ar      1 <0>        -0.1449
     26 C20         0.0149    1.1574    0.1004 C.ar      1 <0>        -0.0946
     27 O2          2.3104    3.9687   -0.1522 O.3       1 <0>        -0.5001
     28 H4         -8.2358    7.5909    2.2586 H         1 <0>         0.0775
     29 H5         -9.1427    7.6188    0.7272 H         1 <0>         0.0984
     30 H6         -9.7049    6.6025    2.0760 H         1 <0>         0.0977
     31 H7         -6.3647    6.2861    2.1551 H         1 <0>         0.4086
     32 H8         -6.8123    4.8372   -1.0312 H         1 <0>         0.1325
     33 H9         -5.4049    3.0784   -2.0069 H         1 <0>         0.1237
     34 H10        -4.8253    4.3514    2.7209 H         1 <0>         0.1231
     35 H11        -3.6259    2.9772    4.0652 H         1 <0>         0.1281
     36 H12        -2.4207    0.8065    4.7562 H         1 <0>         0.1287
     37 H13        -1.0098    0.7074    2.2668 H         1 <0>         0.0854
     38 H14        -2.1241   -0.6571    2.6146 H         1 <0>         0.0739
     39 H15        -3.6885    1.4529   -1.7014 H         1 <0>         0.4023
     40 H16        -2.1877    3.6728   -0.3556 H         1 <0>         0.1310
     41 H17        -0.0962    4.9691   -0.4162 H         1 <0>         0.1276
     42 H18         2.1392    1.3767    0.1860 H         1 <0>         0.1299
     43 H19         0.0432    0.0876    0.2457 H         1 <0>         0.1288
     44 H20         2.5976    4.2922    0.7127 H         1 <0>         0.3915
@<TRIPOS>BOND
     1    1    2 1
     2    1   28 1
     3    1   29 1
     4    1   30 1
     5    2    3 2
     6    2    4 am
     7    4    5 1
     8    4   31 1
     9    5   10 ar
    10    5    6 ar
    11    6    7 ar
    12    6   32 1
    13    7    8 ar
    14    7   33 1
    15    8   20 1
    16    8    9 ar
    17    9   10 ar
    18    9   11 1
    19   10   34 1
    20   11   12 1
    21   11   16 1
    22   11   13 1
    23   13   14 2
    24   13   35 1
    25   14   15 1
    26   14   36 1
    27   15   16 1
    28   15   37 1
    29   15   38 1
    30   16   17 1
    31   16   18 1
    32   18   19 1
    33   18   20 1
    34   18   21 1
    35   20   39 1
    36   21   26 ar
    37   21   22 ar
    38   22   23 ar
    39   22   40 1
    40   23   24 ar
    41   23   41 1
    42   24   25 ar
    43   24   27 1
    44   25   26 ar
    45   25   42 1
    46   26   43 1
    47   27   44 1
@<TRIPOS>MOLECULE
ZINC36923168
   31    33     0     0     0
SMALL
USER_CHARGES

@<TRIPOS>ATOM
      1 C1          0.2378    0.7117    0.1683 C.ar      1 <0>        -0.1560
      2 C2          1.3020    1.5927    0.1318 C.ar      1 <0>        -0.0660
      3 C3          2.5947    1.1145    0.0383 C.ar      1 <0>        -0.1499
      4 C4          2.8278   -0.2525   -0.0193 C.ar      1 <0>         0.1439
      5 C5          1.7621   -1.1382    0.0171 C.ar      1 <0>        -0.1771
      6 C6          0.4656   -0.6558    0.1109 C.ar      1 <0>         0.1327
      7 O1         -0.5812   -1.5216    0.1472 O.3       1 <0>        -0.4971
      8 O2          4.0996   -0.7223   -0.1118 O.3       1 <0>        -0.4899
      9 C7          3.7528    2.0780   -0.0017 C.3       1 <0>         0.1835
     10 N1          4.1985    2.2487   -1.3868 N.pl3     1 <0>        -0.7162
     11 C8          5.3396    3.0056   -1.6654 C.ar      1 <0>         0.2932
     12 C9          5.9489    2.8945   -2.8960 C.ar      1 <0>        -0.1240
     13 C10         7.0835    3.6287   -3.2103 C.ar      1 <0>        -0.0250
     14 C11         7.6154    4.4913   -2.2701 C.ar      1 <0>        -0.1228
     15 C12         7.0158    4.6109   -1.0390 C.ar      1 <0>        -0.0818
     16 C13         5.8574    3.8866   -0.6800 C.ar      1 <0>         0.0070
     17 N2          5.3854    4.1189    0.5634 N.2       1 <0>        -0.4823
     18 C14         5.9504    4.9588    1.3874 C.2       1 <0>         0.1251
     19 S1          7.3351    5.5588    0.4295 S.3       1 <0>        -0.0234
     20 Cl1         5.2831    1.8121   -4.0787 Cl        1 <0>        -0.0592
     21 H1         -0.7716    1.0878    0.2459 H         1 <0>         0.1350
     22 H2          1.1227    2.6568    0.1762 H         1 <0>         0.1349
     23 H3          1.9414   -2.2022   -0.0280 H         1 <0>         0.1372
     24 H4         -0.9379   -1.7442   -0.7236 H         1 <0>         0.3959
     25 H5          4.5214   -0.8862    0.7428 H         1 <0>         0.3935
     26 H6          3.4382    3.0412    0.4000 H         1 <0>         0.0888
     27 H7          4.5735    1.6848    0.5982 H         1 <0>         0.0720
     28 H8          3.7014    1.8362   -2.1105 H         1 <0>         0.4059
     29 H9          7.5470    3.5270   -4.1805 H         1 <0>         0.1491
     30 H10         8.4984    5.0684   -2.5016 H         1 <0>         0.1413
     31 H11         5.6600    5.2188    2.3946 H         1 <0>         0.2318
@<TRIPOS>BOND
     1    1    6 ar
     2    1    2 ar
     3    1   21 1
     4    2    3 ar
     5    2   22 1
     6    3    4 ar
     7    3    9 1
     8    4    5 ar
     9    4    8 1
    10    5    6 ar
    11    5   23 1
    12    6    7 1
    13    7   24 1
    14    8   25 1
    15    9   10 1
    16    9   26 1
    17    9   27 1
    18   10   11 1
    19   10   28 1
    20   11   16 ar
    21   11   12 ar
    22   12   13 ar
    23   12   20 1
    24   13   14 ar
    25   13   29 1
    26   14   15 ar
    27   14   30 1
    28   15   19 1
    29   15   16 ar
    30   16   17 1
    31   17   18 2
    32   18   19 1
    33   18   31 1
@<TRIPOS>MOLECULE
ZINC37928304
   41    42     0     0     0
SMALL
USER_CHARGES

@<TRIPOS>ATOM
      1 C1         -0.0187    1.5258    0.0104 C.3       1 <0>        -0.1594
      2 C2          0.0021   -0.0041    0.0020 C.3       1 <0>        -0.0850
      3 H1          0.5123   -0.3556   -0.8948 H         1 <0>         0.0763
      4 C3         -1.4333   -0.5336    0.0129 C.3       1 <0>        -0.1171
      5 C4         -2.1494   -0.0402    1.2717 C.3       1 <0>        -0.1200
      6 C5         -1.4095   -0.5471    2.5112 C.3       1 <0>        -0.1401
      7 C6          0.0259   -0.0175    2.5003 C.3       1 <0>         0.1481
      8 H2          0.0111    1.0724    2.5063 H         1 <0>         0.0984
      9 C7          0.7421   -0.5109    1.2415 C.3       1 <0>        -0.0857
     10 H3          0.7568   -1.6008    1.2356 H         1 <0>         0.0778
     11 C8          2.1775    0.0187    1.2307 C.3       1 <0>        -0.1542
     12 N1          0.7345   -0.5028    3.6872 N.pl3     1 <0>        -1.1079
     13 S1          0.8166    0.4404    5.0459 S.o2      1 <0>         2.6975
     14 O1          1.5352   -0.3079    6.0169 O.2       1 <0>        -0.9476
     15 O2          1.2303    1.7313    4.6198 O.2       1 <0>        -0.9420
     16 C9         -0.8261    0.6149    5.6590 C.ar      1 <0>        -0.8187
     17 C10        -1.6194    1.6625    5.2222 C.ar      1 <0>         0.2723
     18 C11        -2.9092    1.8016    5.7026 C.ar      1 <0>        -0.2638
     19 C12        -3.4085    0.8895    6.6232 C.ar      1 <0>         0.3222
     20 C13        -2.6112   -0.1607    7.0596 C.ar      1 <0>        -0.2645
     21 C14        -1.3237   -0.2990    6.5726 C.ar      1 <0>         0.2750
     22 F1         -0.5496   -1.3235    6.9926 F         1 <0>        -0.1029
     23 N2         -4.7102    1.0283    7.1099 N.pl3     1 <0>        -0.8501
     24 F2         -1.1332    2.5495    4.3266 F         1 <0>        -0.1030
     25 H4          1.0039    1.9031    0.0027 H         1 <0>         0.0613
     26 H5         -0.5459    1.8868   -0.8726 H         1 <0>         0.0559
     27 H6         -0.5289    1.8773    0.9072 H         1 <0>         0.0605
     28 H7         -1.9605   -0.1726   -0.8702 H         1 <0>         0.0656
     29 H8         -1.4185   -1.6235    0.0069 H         1 <0>         0.0636
     30 H9         -2.1642    1.0497    1.2777 H         1 <0>         0.0687
     31 H10        -3.1720   -0.4175    1.2794 H         1 <0>         0.0654
     32 H11        -1.9196   -0.1955    3.4080 H         1 <0>         0.0620
     33 H12        -1.3947   -1.6369    2.5052 H         1 <0>         0.0726
     34 H13         2.1627    1.1086    1.2367 H         1 <0>         0.0638
     35 H14         2.7046   -0.3424    2.1137 H         1 <0>         0.0567
     36 H15         2.6876   -0.3328    0.3339 H         1 <0>         0.0580
     37 H16         1.1555   -1.3766    3.6772 H         1 <0>         0.4195
     38 H17        -3.5274    2.6192    5.3622 H         1 <0>         0.1504
     39 H18        -2.9973   -0.8709    7.7758 H         1 <0>         0.1503
     40 H19        -5.2663    1.7622    6.8049 H         1 <0>         0.4101
     41 H20        -5.0581    0.3908    7.7529 H         1 <0>         0.4101
@<TRIPOS>BOND
     1    1    2 1
     2    1   25 1
     3    1   26 1
     4    1   27 1
     5    2    3 1
     6    2    9 1
     7    2    4 1
     8    4    5 1
     9    4   28 1
    10    4   29 1
    11    5    6 1
    12    5   30 1
    13    5   31 1
    14    6    7 1
    15    6   32 1
    16    6   33 1
    17    7    8 1
    18    7    9 1
    19    7   12 1
    20    9   10 1
    21    9   11 1
    22   11   34 1
    23   11   35 1
    24   11   36 1
    25   12   13 1
    26   12   37 1
    27   13   14 2
    28   13   15 2
    29   13   16 1
    30   16   21 ar
    31   16   17 ar
    32   17   18 ar
    33   17   24 1
    34   18   19 ar
    35   18   38 1
    36   19   20 ar
    37   19   23 1
    38   20   21 ar
    39   20   39 1
    40   21   22 1
    41   23   40 1
    42   23   41 1
@<TRIPOS>MOLECULE
ZINC44559647
   59    62     0     0     0
SMALL
USER_CHARGES

@<TRIPOS>ATOM
      1 C1         -0.0187    1.5258    0.0104 C.3       1 <0>        -0.1957
      2 C2          0.0021   -0.0041    0.0020 C.3       1 <0>         0.0801
      3 H1          0.5123   -0.3556   -0.8948 H         1 <0>         0.1089
      4 C3          0.7421   -0.5109    1.2415 C.3       1 <0>         0.1122
      5 C4          2.2246   -0.0675    1.1989 C.3       1 <0>        -0.1498
      6 C5          3.0726   -1.3657    1.2660 C.3       1 <0>        -0.1132
      7 C6          2.1254   -2.3650    1.9420 C.3       1 <0>        -0.0874
      8 H2          2.0650   -2.1676    3.0123 H         1 <0>         0.0821
      9 C7          0.7732   -2.0372    1.2509 C.3       1 <0>        -0.0309
     10 C8         -0.3306   -2.7132    2.0469 C.3       1 <0>        -0.1431
     11 C9         -0.0141   -4.2031    2.0516 C.2       1 <0>         0.3673
     12 O1         -0.8614   -5.0104    1.7538 O.2       1 <0>        -0.4443
     13 C10         1.3716   -4.6549    2.4327 C.3       1 <0>        -0.1291
     14 H3          1.5113   -4.5181    3.5050 H         1 <0>         0.1027
     15 C11         2.4358   -3.8260    1.6920 C.3       1 <0>        -0.0736
     16 H4          2.3677   -4.0352    0.6244 H         1 <0>         0.0880
     17 C12         3.8217   -4.2111    2.2034 C.3       1 <0>        -0.1109
     18 C13         4.0615   -5.6970    1.9178 C.3       1 <0>        -0.1217
     19 C14         2.9965   -6.5414    2.6192 C.3       1 <0>        -0.0743
     20 H5          3.1611   -7.5945    2.3910 H         1 <0>         0.0809
     21 C15         1.5878   -6.1242    2.0816 C.3       1 <0>        -0.0321
     22 C16         0.5302   -6.9844    2.7742 C.3       1 <0>        -0.1265
     23 C17         0.6377   -6.8088    4.2901 C.3       1 <0>        -0.1503
     24 C18         2.0303   -7.2397    4.7551 C.3       1 <0>         0.1052
     25 H6          2.1070   -7.1170    5.8355 H         1 <0>         0.0439
     26 C19         3.0926   -6.3279    4.1313 C.3       1 <0>        -0.1106
     27 O2          2.2433   -8.6111    4.4148 O.3       1 <0>        -0.5606
     28 C20         1.4814   -6.3074    0.5664 C.3       1 <0>        -0.1483
     29 C21         0.7825   -2.5651   -0.1851 C.3       1 <0>        -0.1583
     30 O3          0.1118   -0.0219    2.4272 O.3       1 <0>        -0.5509
     31 O4         -1.3386   -0.4987    0.0122 O.3       1 <0>        -0.5515
     32 H7          1.0039    1.9031    0.0027 H         1 <0>         0.0694
     33 H8         -0.5459    1.8868   -0.8726 H         1 <0>         0.0698
     34 H9         -0.5289    1.8773    0.9072 H         1 <0>         0.0600
     35 H10         2.4291    0.4652    0.2702 H         1 <0>         0.0729
     36 H11         2.4489    0.5704    2.0538 H         1 <0>         0.0768
     37 H12         3.3387   -1.7041    0.2646 H         1 <0>         0.0715
     38 H13         3.9657   -1.2114    1.8716 H         1 <0>         0.0711
     39 H14        -0.3424   -2.3310    3.0676 H         1 <0>         0.1013
     40 H15        -1.2952   -2.5381    1.5705 H         1 <0>         0.0930
     41 H16         4.5778   -3.6147    1.6929 H         1 <0>         0.0667
     42 H17         3.8772   -4.0323    3.2772 H         1 <0>         0.0648
     43 H18         4.0118   -5.8716    0.8430 H         1 <0>         0.0646
     44 H19         5.0480   -5.9814    2.2840 H         1 <0>         0.0620
     45 H20        -0.4616   -6.6770    2.4427 H         1 <0>         0.0959
     46 H21         0.6897   -8.0317    2.5180 H         1 <0>         0.0643
     47 H22         0.4765   -5.7618    4.5471 H         1 <0>         0.0645
     48 H23        -0.1161   -7.4239    4.7816 H         1 <0>         0.0624
     49 H24         4.0840   -6.6203    4.4772 H         1 <0>         0.0702
     50 H25         2.9235   -5.2758    4.3610 H         1 <0>         0.0825
     51 H26         1.6077   -9.2193    4.8164 H         1 <0>         0.3778
     52 H27         2.2404   -5.7004    0.0728 H         1 <0>         0.0581
     53 H28         1.6358   -7.3568    0.3155 H         1 <0>         0.0563
     54 H29         0.4922   -5.9954    0.2312 H         1 <0>         0.0628
     55 H30         1.6507   -2.1693   -0.7121 H         1 <0>         0.0611
     56 H31         0.8308   -3.6539   -0.1717 H         1 <0>         0.0617
     57 H32        -0.1274   -2.2480   -0.6947 H         1 <0>         0.0787
     58 H33         0.0795    0.9427    2.4862 H         1 <0>         0.3748
     59 H34        -1.8531   -0.2245    0.7836 H         1 <0>         0.3767
@<TRIPOS>BOND
     1    1    2 1
     2    1   32 1
     3    1   33 1
     4    1   34 1
     5    2    3 1
     6    2    4 1
     7    2   31 1
     8    4    9 1
     9    4    5 1
    10    4   30 1
    11    5    6 1
    12    5   35 1
    13    5   36 1
    14    6    7 1
    15    6   37 1
    16    6   38 1
    17    7    8 1
    18    7   15 1
    19    7    9 1
    20    9   10 1
    21    9   29 1
    22   10   11 1
    23   10   39 1
    24   10   40 1
    25   11   12 2
    26   11   13 1
    27   13   14 1
    28   13   21 1
    29   13   15 1
    30   15   16 1
    31   15   17 1
    32   17   18 1
    33   17   41 1
    34   17   42 1
    35   18   19 1
    36   18   43 1
    37   18   44 1
    38   19   20 1
    39   19   26 1
    40   19   21 1
    41   21   22 1
    42   21   28 1
    43   22   23 1
    44   22   45 1
    45   22   46 1
    46   23   24 1
    47   23   47 1
    48   23   48 1
    49   24   25 1
    50   24   26 1
    51   24   27 1
    52   26   49 1
    53   26   50 1
    54   27   51 1
    55   28   52 1
    56   28   53 1
    57   28   54 1
    58   29   55 1
    59   29   56 1
    60   29   57 1
    61   30   58 1
    62   31   59 1
@<TRIPOS>MOLECULE
ZINC60389876
   44    46     0     0     0
SMALL
USER_CHARGES

@<TRIPOS>ATOM
      1 C1         -0.0186    1.5213    0.0104 C.3       1 <0>        -0.1215
      2 C2          1.4071    2.0688   -0.0003 C.3       1 <0>        -0.1243
      3 C3          2.1294    1.6470   -1.2762 C.3       1 <0>        -0.0574
      4 C4          2.8225    0.3101   -1.0586 C.2       1 <0>        -0.0582
      5 C5          2.3948   -0.5999   -0.1582 C.2       1 <0>        -0.2198
      6 S1          3.5206   -1.9573   -0.3179 S.3       1 <0>         0.2833
      7 C6          4.5317   -1.3524   -1.5132 C.2       1 <0>         0.0387
      8 C7          4.0046   -0.1052   -1.8008 C.2       1 <0>        -0.2409
      9 C8          4.6124    0.7636   -2.8135 C.2       1 <0>         0.5856
     10 O1          5.4802    1.5551   -2.4947 O.2       1 <0>        -0.5345
     11 N1          4.2101    0.6856   -4.0975 N.am      1 <0>        -0.8486
     12 N2          5.6404   -1.9614   -2.0812 N.am      1 <0>        -0.6213
     13 C9          6.0153   -3.1910   -1.6762 C.2       1 <0>         0.5133
     14 O2          5.3829   -3.7648   -0.8150 O.2       1 <0>        -0.4938
     15 C10         7.2203   -3.8529   -2.2935 C.3       1 <0>        -0.1003
     16 H1          7.0662   -3.9668   -3.3665 H         1 <0>         0.1076
     17 C11         7.4358   -5.2306   -1.6544 C.3       1 <0>        -0.1008
     18 C12         8.5493   -5.9499   -2.4188 C.3       1 <0>        -0.0942
     19 C13         9.7391   -5.0478   -2.5692 C.2       1 <0>        -0.1503
     20 C14         9.7012   -3.7642   -2.4068 C.2       1 <0>        -0.1577
     21 C15         8.4633   -2.9971   -2.0403 C.3       1 <0>        -0.0844
     22 C16         1.2356   -0.4803    0.7814 C.3       1 <0>        -0.0374
     23 C17         0.0021   -0.0041    0.0020 C.3       1 <0>        -0.1139
     24 H2         -0.5328    1.8705    0.9058 H         1 <0>         0.0647
     25 H3         -0.5497    1.8801   -0.8712 H         1 <0>         0.0631
     26 H4          1.3759    3.1570    0.0534 H         1 <0>         0.0663
     27 H5          1.9478    1.6834    0.8642 H         1 <0>         0.0743
     28 H6          1.4071    1.5529   -2.0871 H         1 <0>         0.0768
     29 H7          2.8712    2.4012   -1.5388 H         1 <0>         0.0705
     30 H8          3.5185    0.0547   -4.3516 H         1 <0>         0.4032
     31 H9          4.6123    1.2603   -4.7675 H         1 <0>         0.4026
     32 H10         6.1463   -1.5024   -2.7699 H         1 <0>         0.4183
     33 H11         7.7271   -5.1090   -0.6111 H         1 <0>         0.0751
     34 H12         6.5152   -5.8110   -1.7157 H         1 <0>         0.0795
     35 H13         8.8422   -6.8462   -1.8720 H         1 <0>         0.0804
     36 H14         8.1845   -6.2343   -3.4058 H         1 <0>         0.0772
     37 H15        10.6861   -5.4976   -2.8287 H         1 <0>         0.1078
     38 H16        10.6167   -3.2087   -2.5472 H         1 <0>         0.1101
     39 H17         8.4054   -2.0892   -2.6407 H         1 <0>         0.0777
     40 H18         8.5077   -2.7277   -0.9850 H         1 <0>         0.0820
     41 H19         1.0295   -1.4516    1.2310 H         1 <0>         0.0749
     42 H20         1.4734    0.2409    1.5633 H         1 <0>         0.0890
     43 H21        -0.9013   -0.3850    0.4783 H         1 <0>         0.0706
     44 H22         0.0569   -0.3637   -1.0255 H         1 <0>         0.0668
@<TRIPOS>BOND
     1    1   23 1
     2    1    2 1
     3    1   24 1
     4    1   25 1
     5    2    3 1
     6    2   26 1
     7    2   27 1
     8    3    4 1
     9    3   28 1
    10    3   29 1
    11    4    8 1
    12    4    5 2
    13    5    6 1
    14    5   22 1
    15    6    7 1
    16    7    8 2
    17    7   12 1
    18    8    9 1
    19    9   10 2
    20    9   11 am
    21   11   30 1
    22   11   31 1
    23   12   13 am
    24   12   32 1
    25   13   14 2
    26   13   15 1
    27   15   16 1
    28   15   21 1
    29   15   17 1
    30   17   18 1
    31   17   33 1
    32   17   34 1
    33   18   19 1
    34   18   35 1
    35   18   36 1
    36   19   20 2
    37   19   37 1
    38   20   21 1
    39   20   38 1
    40   21   39 1
    41   21   40 1
    42   22   23 1
    43   22   41 1
    44   22   42 1
    45   23   43 1
    46   23   44 1
@<TRIPOS>MOLECULE
ZINC03272440
   41    43     0     0     0
SMALL
USER_CHARGES
2-[[4-amino-5-(p-tolyl)-1,2,4-triazol-3-yl]sulfanyl]-N-(2,3,4-trifluorophenyl)-acetamide
@<TRIPOS>ATOM
      1 C1          6.3869  -13.9915   -1.1534 C.3       1 <0>        -0.1213
      2 C2          5.7964  -12.6102   -1.0337 C.ar      1 <0>        -0.0658
      3 C3          6.6226  -11.5262   -0.7963 C.ar      1 <0>        -0.1120
      4 C4          6.0885  -10.2590   -0.6856 C.ar      1 <0>        -0.1156
      5 C5          4.7113  -10.0720   -0.8137 C.ar      1 <0>        -0.0291
      6 C6          3.8827  -11.1706   -1.0475 C.ar      1 <0>        -0.0657
      7 C7          4.4303  -12.4318   -1.1613 C.ar      1 <0>        -0.1133
      8 C8          4.1320   -8.7169   -0.6963 C.2       1 <0>         0.1992
      9 N1          2.8692   -8.4234   -0.4905 N.2       1 <0>        -0.2524
     10 N2          2.7183   -7.1483   -0.4368 N.2       1 <0>        -0.2875
     11 C9          3.8748   -6.5491   -0.6140 C.2       1 <0>         0.1705
     12 N3          4.8148   -7.5255   -0.7817 N.pl3     1 <0>        -0.3026
     13 N4          6.1538   -7.3547   -0.9908 N.3       1 <0>        -0.5851
     14 S1          4.1602   -4.8105   -0.6254 S.3       1 <0>         0.1255
     15 C10         2.4743   -4.2134   -0.3469 C.3       1 <0>        -0.1636
     16 C11         2.4735   -2.7067   -0.3175 C.2       1 <0>         0.5426
     17 O1          3.5107   -2.0965   -0.4698 O.2       1 <0>        -0.4957
     18 N5          1.3203   -2.0371   -0.1220 N.am      1 <0>        -0.6583
     19 C12         1.2988   -0.6384   -0.2077 C.ar      1 <0>         0.1394
     20 C13         2.2583    0.0266   -0.9588 C.ar      1 <0>        -0.0862
     21 C14         2.2364    1.4054   -1.0433 C.ar      1 <0>        -0.1073
     22 C15         1.2584    2.1263   -0.3798 C.ar      1 <0>         0.0822
     23 C16         0.2981    1.4665    0.3716 C.ar      1 <0>         0.0580
     24 C17         0.3166    0.0846    0.4587 C.ar      1 <0>         0.0649
     25 F1         -0.6188   -0.5598    1.1901 F         1 <0>        -0.1156
     26 F2         -0.6590    2.1713    1.0139 F         1 <0>        -0.1113
     27 F3          1.2398    3.4745   -0.4645 F         1 <0>        -0.1169
     28 H1          6.4166  -14.4604   -0.1699 H         1 <0>         0.0768
     29 H2          5.7726  -14.5924   -1.8240 H         1 <0>         0.0718
     30 H3          7.3985  -13.9208   -1.5530 H         1 <0>         0.0706
     31 H4          7.6882  -11.6722   -0.6977 H         1 <0>         0.1324
     32 H5          6.7345   -9.4137   -0.4999 H         1 <0>         0.1147
     33 H6          2.8158  -11.0332   -1.1431 H         1 <0>         0.1398
     34 H7          3.7908  -13.2821   -1.3465 H         1 <0>         0.1347
     35 H8          6.6664   -7.4206   -0.1241 H         1 <0>         0.3699
     36 H9          6.5015   -8.0173   -1.6677 H         1 <0>         0.3803
     37 H10         2.1061   -4.5956    0.6051 H         1 <0>         0.1349
     38 H11         1.8279   -4.5614   -1.1526 H         1 <0>         0.1368
     39 H12         0.5051   -2.5233    0.0781 H         1 <0>         0.4236
     40 H13         3.0219   -0.5341   -1.4775 H         1 <0>         0.1749
     41 H14         2.9832    1.9216   -1.6282 H         1 <0>         0.1615
@<TRIPOS>BOND
     1    1    2 1
     2    1   28 1
     3    1   29 1
     4    1   30 1
     5    2    7 ar
     6    2    3 ar
     7    3    4 ar
     8    3   31 1
     9    4    5 ar
    10    4   32 1
    11    5    6 ar
    12    5    8 1
    13    6    7 ar
    14    6   33 1
    15    7   34 1
    16    8   12 1
    17    8    9 2
    18    9   10 1
    19   10   11 2
    20   11   12 1
    21   11   14 1
    22   12   13 1
    23   13   35 1
    24   13   36 1
    25   14   15 1
    26   15   16 1
    27   15   37 1
    28   15   38 1
    29   16   17 2
    30   16   18 am
    31   18   19 1
    32   18   39 1
    33   19   24 ar
    34   19   20 ar
    35   20   21 ar
    36   20   40 1
    37   21   22 ar
    38   21   41 1
    39   22   23 ar
    40   22   27 1
    41   23   24 ar
    42   23   26 1
    43   24   25 1
@<TRIPOS>MOLECULE
ZINC12805608
   49    51     0     0     0
SMALL
USER_CHARGES
2-[(6-amino-3,5-dicyano-2-pyridyl)sulfanyl]-N-[(1R)-1-tetralin-6-ylethyl]acetamide
@<TRIPOS>ATOM
      1 C1         -4.6046    9.2529   -1.3451 C.3       1 <0>        -0.1588
      2 C2         -4.1198    9.0139    0.0863 C.3       1 <0>         0.1891
      3 H1         -4.9153    8.5723    0.7044 H         1 <0>         0.0969
      4 C3         -3.6706   10.3200    0.6891 C.ar      1 <0>        -0.0929
      5 C4         -2.4207   10.8292    0.3887 C.ar      1 <0>        -0.1171
      6 C5         -2.0157   12.0239    0.9465 C.ar      1 <0>        -0.1146
      7 C6         -2.8534   12.7207    1.8081 C.ar      1 <0>        -0.0726
      8 C7         -4.0998   12.2162    2.1032 C.ar      1 <0>        -0.0681
      9 C8         -4.5070   11.0144    1.5381 C.ar      1 <0>        -0.1071
     10 C9         -5.0639   12.9223    3.0202 C.3       1 <0>        -0.0856
     11 C10        -4.3331   13.9567    3.8738 C.3       1 <0>        -0.1228
     12 C11        -3.4961   14.8450    2.9459 C.3       1 <0>        -0.1223
     13 C12        -2.3422   14.0116    2.3922 C.3       1 <0>        -0.0834
     14 N1         -2.9981    8.0717    0.0710 N.am      1 <0>        -0.7294
     15 C13        -3.2329    6.7445    0.0666 C.2       1 <0>         0.5310
     16 O1         -4.3728    6.3303    0.0751 O.2       1 <0>        -0.5256
     17 C14        -2.0791    5.7753    0.0509 C.3       1 <0>        -0.1540
     18 S1         -2.7148    4.0806    0.0483 S.3       1 <0>         0.0663
     19 C15        -1.1976    3.1847    0.0296 C.ar      1 <0>         0.2232
     20 C16        -1.2212    1.7753    0.0174 C.ar      1 <0>        -0.1303
     21 C17        -0.0126    1.0758    0.0080 C.ar      1 <0>         0.0859
     22 C18         1.1773    1.8084    0.0005 C.ar      1 <0>        -0.1698
     23 C19         1.1161    3.2158    0.0082 C.ar      1 <0>         0.4994
     24 N2         -0.0488    3.8436    0.0222 N.ar      1 <0>        -0.5538
     25 N3          2.2855    3.9490    0.0014 N.pl3     1 <0>        -0.8454
     26 C20         2.4422    1.1374   -0.0142 C.1       1 <0>         0.2579
     27 N4          3.4457    0.6050   -0.0259 N.1       1 <0>        -0.4100
     28 C21        -2.4676    1.0704    0.0199 C.1       1 <0>         0.2538
     29 N5         -3.4564    0.5111    0.0218 N.1       1 <0>        -0.3950
     30 H2         -4.9325    8.2996   -1.7851 H         1 <0>         0.0663
     31 H3         -3.7830    9.6706   -1.9455 H         1 <0>         0.0609
     32 H4         -5.4468    9.9604   -1.3336 H         1 <0>         0.0694
     33 H5         -1.7636   10.2931   -0.2801 H         1 <0>         0.1204
     34 H6         -1.0393   12.4211    0.7111 H         1 <0>         0.1227
     35 H7         -5.4852   10.6186    1.7682 H         1 <0>         0.1230
     36 H8         -5.8324   13.4329    2.4213 H         1 <0>         0.0782
     37 H9         -5.5440   12.1877    3.6834 H         1 <0>         0.0762
     38 H10        -5.0679   14.5680    4.4182 H         1 <0>         0.0692
     39 H11        -3.6791   13.4423    4.5933 H         1 <0>         0.0657
     40 H12        -4.1261   15.2101    2.1214 H         1 <0>         0.0661
     41 H13        -3.1032   15.7011    3.5140 H         1 <0>         0.0690
     42 H14        -1.6380   13.7914    3.2081 H         1 <0>         0.0775
     43 H15        -1.8281   14.5897    1.6102 H         1 <0>         0.0758
     44 H16        -1.9643    8.4474    0.0631 H         1 <0>         0.4212
     45 H17        -1.4733    5.9411   -0.8521 H         1 <0>         0.1297
     46 H18        -1.4564    5.9320    0.9440 H         1 <0>         0.1296
     47 H19         0.0021   -0.0041    0.0020 H         1 <0>         0.1582
     48 H20         2.2455    5.0483    0.0073 H         1 <0>         0.4379
     49 H21         3.2575    3.4341   -0.0100 H         1 <0>         0.4381
@<TRIPOS>BOND
     1    1    2 1
     2    1   30 1
     3    1   31 1
     4    1   32 1
     5    2    3 1
     6    2    4 1
     7    2   14 1
     8    4    9 ar
     9    4    5 ar
    10    5    6 ar
    11    5   33 1
    12    6    7 ar
    13    6   34 1
    14    7   13 1
    15    7    8 ar
    16    8    9 ar
    17    8   10 1
    18    9   35 1
    19   10   11 1
    20   10   36 1
    21   10   37 1
    22   11   12 1
    23   11   38 1
    24   11   39 1
    25   12   13 1
    26   12   40 1
    27   12   41 1
    28   13   42 1
    29   13   43 1
    30   14   15 am
    31   14   44 1
    32   15   16 2
    33   15   17 1
    34   17   18 1
    35   17   45 1
    36   17   46 1
    37   18   19 1
    38   19   24 ar
    39   19   20 ar
    40   20   21 ar
    41   20   28 1
    42   21   22 ar
    43   21   47 1
    44   22   23 ar
    45   22   26 1
    46   23   24 ar
    47   23   25 1
    48   25   48 1
    49   25   49 1
    50   26   27 3
    51   28   29 3
@<TRIPOS>MOLECULE
ZINC40734731
   59    62     0     0     0
SMALL
USER_CHARGES

@<TRIPOS>ATOM
      1 C1         -1.1672    2.2797   -2.0247 C.3       1 <0>        -0.1308
      2 C2         -1.2979    0.7942   -1.6550 C.3       1 <0>        -0.0713
      3 C3         -2.5989    0.1580   -2.2169 C.3       1 <0>        -0.1252
      4 C4         -2.2125   -1.3397   -2.1291 C.3       1 <0>         0.1556
      5 H1         -2.8480   -1.9599   -2.7743 H         1 <0>         0.0950
      6 C5         -2.3110   -1.7472   -0.6611 C.3       1 <0>        -0.1167
      7 C6         -1.4831   -0.8853    0.2746 C.3       1 <0>        -0.0502
      8 C7         -1.2938    0.5601   -0.1454 C.3       1 <0>        -0.0959
      9 C8         -0.1177   -1.5462    0.5163 C.3       1 <0>        -0.1405
     10 C9         -2.2097   -0.8718    1.6429 C.3       1 <0>        -0.1474
     11 N1         -0.7992   -1.3930   -2.5525 N.pl3     1 <0>        -0.5961
     12 C10        -0.1985   -0.0725   -2.3085 C.3       1 <0>         0.1292
     13 C11        -0.1495   -2.4943   -3.0970 C.ar      1 <0>         0.4449
     14 C12         1.1564   -2.3809   -3.5774 C.ar      1 <0>        -0.0323
     15 C13         1.7624   -3.5181   -4.1138 C.ar      1 <0>         0.4184
     16 N2          1.0774   -4.6589   -4.1468 N.ar      1 <0>        -0.5882
     17 C14        -0.1540   -4.7230   -3.6826 C.ar      1 <0>         0.3412
     18 N3         -0.7607   -3.6745   -3.1636 N.ar      1 <0>        -0.5869
     19 N4          3.0608   -3.4601   -4.6062 N.pl3     1 <0>        -0.7125
     20 C15         3.6859   -4.6606   -5.1668 C.3       1 <0>         0.1829
     21 C16         5.0829   -4.3315   -5.6264 C.ar      1 <0>        -0.1488
     22 C17         5.2981   -3.8901   -6.9189 C.ar      1 <0>        -0.0594
     23 C18         6.5778   -3.5882   -7.3428 C.ar      1 <0>        -0.1543
     24 C19         7.6473   -3.7279   -6.4703 C.ar      1 <0>         0.1355
     25 C20         7.4286   -4.1706   -5.1738 C.ar      1 <0>        -0.2110
     26 C21         6.1464   -4.4662   -4.7532 C.ar      1 <0>        -0.0580
     27 O1          8.9072   -3.4320   -6.8851 O.3       1 <0>        -0.3169
     28 C22         9.9597   -3.5993   -5.9331 C.3       1 <0>         0.0260
     29 N5          1.8416   -1.1560   -3.5228 N.pl3     1 <0>        -0.8950
     30 H2         -0.2305    2.6717   -1.6285 H         1 <0>         0.0595
     31 H3         -1.1759    2.3863   -3.1094 H         1 <0>         0.0611
     32 H4         -2.0026    2.8351   -1.5984 H         1 <0>         0.0640
     33 H5         -3.4567    0.3860   -1.5847 H         1 <0>         0.0862
     34 H6         -2.7772    0.4641   -3.2472 H         1 <0>         0.0739
     35 H7         -3.3652   -1.7020   -0.3482 H         1 <0>         0.0666
     36 H8         -1.9966   -2.7956   -0.5560 H         1 <0>         0.0684
     37 H9         -0.3428    0.9302    0.2693 H         1 <0>         0.0612
     38 H10        -2.0891    1.1706    0.3111 H         1 <0>         0.0645
     39 H11         0.4066   -1.6548   -0.4331 H         1 <0>         0.0545
     40 H12         0.4732   -0.9240    1.1885 H         1 <0>         0.0496
     41 H13        -0.2639   -2.5287    0.9651 H         1 <0>         0.0512
     42 H14        -2.2854   -1.8901    2.0242 H         1 <0>         0.0539
     43 H15        -1.6457   -0.2609    2.3477 H         1 <0>         0.0527
     44 H16        -3.2092   -0.4548    1.5194 H         1 <0>         0.0542
     45 H17         0.0991    0.3722   -3.2632 H         1 <0>         0.0674
     46 H18         0.6696   -0.1522   -1.6625 H         1 <0>         0.0645
     47 H19        -0.6810   -5.6647   -3.7253 H         1 <0>         0.1913
     48 H20         3.5530   -2.6247   -4.5788 H         1 <0>         0.4056
     49 H21         3.7281   -5.4381   -4.4041 H         1 <0>         0.0715
     50 H22         3.0985   -5.0142   -6.0141 H         1 <0>         0.0725
     51 H23         4.4652   -3.7815   -7.5977 H         1 <0>         0.1312
     52 H24         6.7455   -3.2441   -8.3527 H         1 <0>         0.1328
     53 H25         8.2596   -4.2801   -4.4927 H         1 <0>         0.1297
     54 H26         5.9751   -4.8066   -3.7427 H         1 <0>         0.1262
     55 H27        10.9109   -3.3294   -6.3919 H         1 <0>         0.1021
     56 H28         9.7763   -2.9566   -5.0720 H         1 <0>         0.0564
     57 H29         9.9947   -4.6394   -5.6092 H         1 <0>         0.0571
     58 H30         1.7198   -0.5656   -2.7628 H         1 <0>         0.3933
     59 H31         2.4365   -0.9004   -4.2450 H         1 <0>         0.3853
@<TRIPOS>BOND
     1    1    2 1
     2    1   30 1
     3    1   31 1
     4    1   32 1
     5    2    8 1
     6    2   12 1
     7    2    3 1
     8    3    4 1
     9    3   33 1
    10    3   34 1
    11    4    5 1
    12    4    6 1
    13    4   11 1
    14    6    7 1
    15    6   35 1
    16    6   36 1
    17    7    8 1
    18    7    9 1
    19    7   10 1
    20    8   37 1
    21    8   38 1
    22    9   39 1
    23    9   40 1
    24    9   41 1
    25   10   42 1
    26   10   43 1
    27   10   44 1
    28   11   12 1
    29   11   13 1
    30   12   45 1
    31   12   46 1
    32   13   18 ar
    33   13   14 ar
    34   14   15 ar
    35   14   29 1
    36   15   16 ar
    37   15   19 1
    38   16   17 ar
    39   17   18 ar
    40   17   47 1
    41   19   20 1
    42   19   48 1
    43   20   21 1
    44   20   49 1
    45   20   50 1
    46   21   26 ar
    47   21   22 ar
    48   22   23 ar
    49   22   51 1
    50   23   24 ar
    51   23   52 1
    52   24   25 ar
    53   24   27 1
    54   25   26 ar
    55   25   53 1
    56   26   54 1
    57   27   28 1
    58   28   55 1
    59   28   56 1
    60   28   57 1
    61   29   58 1
    62   29   59 1
@<TRIPOS>MOLECULE
ZINC29589359
   37    39     0     0     0
SMALL
USER_CHARGES

@<TRIPOS>ATOM
      1 C1         -0.0164    1.3893   -0.0356 C.ar      1 <0>        -0.0699
      2 C2          1.1704    2.0931   -0.0534 C.ar      1 <0>        -0.1128
      3 C3          2.3784    1.4171   -0.0732 C.ar      1 <0>        -0.0193
      4 C4          2.4024    0.0329   -0.0752 C.ar      1 <0>        -0.1143
      5 C5          1.2209   -0.6799   -0.0579 C.ar      1 <0>        -0.0627
      6 C6          0.0024   -0.0041   -0.0375 C.ar      1 <0>        -0.0137
      7 C7         -1.2709   -0.7657   -0.0183 C.2       1 <0>         0.2777
      8 N1         -1.3802   -2.1022   -0.0182 N.2       1 <0>        -0.5338
      9 H1         -4.3545   -1.2450    0.0303 H         1 <0>         0.4494
     10 C8         -2.6505   -2.4418    0.0019 C.2       1 <0>         0.2510
     11 N2         -3.3867   -1.3084    0.0151 N.pl3     1 <0>        -0.4554
     12 N3         -2.4749   -0.2406    0.0069 N.2       1 <0>        -0.2890
     13 S1         -3.2822   -4.0867    0.0101 S.3       1 <0>         0.0932
     14 C9         -1.7967   -5.1274   -0.0143 C.3       1 <0>        -0.1463
     15 C10        -2.2004   -6.5793   -0.0095 C.2       1 <0>         0.5358
     16 O1         -3.3748   -6.8822    0.0087 O.2       1 <0>        -0.5026
     17 N4         -1.2565   -7.5413   -0.0253 N.am      1 <0>        -0.6636
     18 C11        -1.6275   -8.8885    0.0769 C.ar      1 <0>         0.1295
     19 C12        -0.8178   -9.7815    0.7659 C.ar      1 <0>        -0.1226
     20 C13        -1.1843  -11.1091    0.8667 C.ar      1 <0>        -0.1268
     21 C14        -2.3609  -11.5507    0.2794 C.ar      1 <0>         0.0955
     22 C15        -3.1701  -10.6591   -0.4095 C.ar      1 <0>        -0.1267
     23 C16        -2.8079   -9.3300   -0.5058 C.ar      1 <0>        -0.1013
     24 O2         -2.7210  -12.8581    0.3786 O.3       1 <0>        -0.4988
     25 Cl1         3.8681    2.3081   -0.0962 Cl        1 <0>        -0.0623
     26 H2         -0.9582    1.9175   -0.0156 H         1 <0>         0.1418
     27 H3          1.1569    3.1730   -0.0523 H         1 <0>         0.1414
     28 H4          3.3472   -0.4900   -0.0907 H         1 <0>         0.1412
     29 H5          1.2405   -1.7597   -0.0602 H         1 <0>         0.1440
     30 H6         -1.2183   -4.9141   -0.9133 H         1 <0>         0.1335
     31 H7         -1.1904   -4.9160    0.8665 H         1 <0>         0.1336
     32 H8         -0.3204   -7.3009   -0.1075 H         1 <0>         0.4165
     33 H9          0.0986   -9.4380    1.2226 H         1 <0>         0.1324
     34 H10        -0.5546  -11.8038    1.4026 H         1 <0>         0.1349
     35 H11        -4.0857  -11.0036   -0.8672 H         1 <0>         0.1341
     36 H12        -3.4405   -8.6350   -1.0380 H         1 <0>         0.1447
     37 H13        -3.2640  -13.0588    1.1531 H         1 <0>         0.3919
@<TRIPOS>BOND
     1    1    6 ar
     2    1    2 ar
     3    1   26 1
     4    2    3 ar
     5    2   27 1
     6    3    4 ar
     7    3   25 1
     8    4    5 ar
     9    4   28 1
    10    5    6 ar
    11    5   29 1
    12    6    7 1
    13    7    8 1
    14    7   12 2
    15    8   10 2
    16    9   11 1
    17   10   13 1
    18   10   11 1
    19   11   12 1
    20   13   14 1
    21   14   15 1
    22   14   30 1
    23   14   31 1
    24   15   16 2
    25   15   17 am
    26   17   18 1
    27   17   32 1
    28   18   23 ar
    29   18   19 ar
    30   19   20 ar
    31   19   33 1
    32   20   21 ar
    33   20   34 1
    34   21   22 ar
    35   21   24 1
    36   22   23 ar
    37   22   35 1
    38   23   36 1
    39   24   37 1
@<TRIPOS>MOLECULE
ZINC66360599
   55    57     0     0     0
SMALL
USER_CHARGES

@<TRIPOS>ATOM
      1 C1          0.0548    1.3736   -0.3314 C.3       1 <0>        -0.1164
      2 C2          0.0614   -0.1317   -0.2605 C.ar      1 <0>        -0.0838
      3 C3          0.0654   -0.8784   -1.4238 C.ar      1 <0>        -0.1187
      4 C4          0.0714   -2.2592   -1.3588 C.ar      1 <0>        -0.0959
      5 C5          0.0739   -2.8933   -0.1304 C.ar      1 <0>        -0.0951
      6 C6          0.0709   -2.1466    1.0329 C.ar      1 <0>        -0.0976
      7 C7          0.0692   -0.7657    0.9678 C.ar      1 <0>        -0.1221
      8 C8          0.0795   -4.3986   -0.0595 C.3       1 <0>         0.2542
      9 H1         -0.2706   -4.8083   -1.0070 H         1 <0>         0.1043
     10 C9          1.4806   -4.8836    0.2103 C.ar      1 <0>        -0.1258
     11 C10         1.9829   -4.8603    1.4983 C.ar      1 <0>        -0.0706
     12 C11         3.2671   -5.3039    1.7482 C.ar      1 <0>        -0.1470
     13 C12         4.0527   -5.7735    0.7056 C.ar      1 <0>         0.1320
     14 C13         3.5462   -5.7962   -0.5857 C.ar      1 <0>        -0.2026
     15 C14         2.2596   -5.3564   -0.8296 C.ar      1 <0>        -0.0609
     16 O1          5.3165   -6.2100    0.9489 O.3       1 <0>        -0.3167
     17 C15         6.0677   -6.6796   -0.1724 C.3       1 <0>         0.0257
     18 N1         -0.8065   -4.8399    1.0205 N.am      1 <0>        -0.7360
     19 C16        -2.1269   -4.9844    0.7923 C.2       1 <0>         0.7018
     20 O2         -2.5828   -4.7485   -0.3099 O.2       1 <0>        -0.5671
     21 N2         -2.9420   -5.3904    1.7859 N.am      1 <0>        -0.7387
     22 C17        -4.3773   -5.5475    1.5379 C.3       1 <0>         0.1537
     23 H2         -4.7433   -4.7011    0.9565 H         1 <0>         0.1192
     24 C18        -5.1251   -5.6171    2.8716 C.3       1 <0>        -0.1251
     25 C19        -4.2914   -6.3330    3.9186 C.3       1 <0>        -0.1250
     26 C20        -4.0735   -7.8063    3.6261 C.3       1 <0>        -0.1453
     27 C21        -3.2011   -7.9922    2.3832 C.3       1 <0>         0.0941
     28 N3         -4.0671   -7.9743    1.1930 N.am      1 <0>        -0.7213
     29 C22        -4.6243   -6.8327    0.7762 C.2       1 <0>         0.5135
     30 O3         -5.3325   -6.8252   -0.2084 O.2       1 <0>        -0.5339
     31 H3          1.0809    1.7408   -0.3528 H         1 <0>         0.0705
     32 H4         -0.4641    1.6925   -1.2354 H         1 <0>         0.0666
     33 H5         -0.4570    1.7763    0.5426 H         1 <0>         0.0657
     34 H6          0.0634   -0.3830   -2.3835 H         1 <0>         0.1223
     35 H7          0.0738   -2.8426   -2.2676 H         1 <0>         0.1218
     36 H8          0.0726   -2.6419    1.9926 H         1 <0>         0.1148
     37 H9          0.0706   -0.1823    1.8767 H         1 <0>         0.1202
     38 H10         1.3709   -4.4947    2.3096 H         1 <0>         0.1254
     39 H11         3.6593   -5.2849    2.7543 H         1 <0>         0.1332
     40 H12         4.1559   -6.1613   -1.3990 H         1 <0>         0.1314
     41 H13         1.8632   -5.3780   -1.8340 H         1 <0>         0.1285
     42 H14         5.5496   -7.5226   -0.6295 H         1 <0>         0.0569
     43 H15         6.1706   -5.8770   -0.9027 H         1 <0>         0.0571
     44 H16         7.0560   -6.9974    0.1598 H         1 <0>         0.1021
     45 H17        -0.4428   -5.0281    1.8998 H         1 <0>         0.3943
     46 H18        -2.5784   -5.5786    2.6652 H         1 <0>         0.4004
     47 H19        -5.3412   -4.6054    3.2151 H         1 <0>         0.0870
     48 H20        -6.0624   -6.1550    2.7298 H         1 <0>         0.0848
     49 H21        -3.3195   -5.8437    3.9838 H         1 <0>         0.0619
     50 H22        -4.7897   -6.2399    4.8836 H         1 <0>         0.0772
     51 H23        -3.5835   -8.2727    4.4808 H         1 <0>         0.0808
     52 H24        -5.0385   -8.2856    3.4617 H         1 <0>         0.0746
     53 H25        -2.4763   -7.1806    2.3203 H         1 <0>         0.0845
     54 H26        -2.6798   -8.9477    2.4418 H         1 <0>         0.0856
     55 H27        -4.2332   -8.7963    0.7055 H         1 <0>         0.3995
@<TRIPOS>BOND
     1    1    2 1
     2    1   31 1
     3    1   32 1
     4    1   33 1
     5    2    7 ar
     6    2    3 ar
     7    3    4 ar
     8    3   34 1
     9    4    5 ar
    10    4   35 1
    11    5    6 ar
    12    5    8 1
    13    6    7 ar
    14    6   36 1
    15    7   37 1
    16    8    9 1
    17    8   10 1
    18    8   18 1
    19   10   15 ar
    20   10   11 ar
    21   11   12 ar
    22   11   38 1
    23   12   13 ar
    24   12   39 1
    25   13   14 ar
    26   13   16 1
    27   14   15 ar
    28   14   40 1
    29   15   41 1
    30   16   17 1
    31   17   42 1
    32   17   43 1
    33   17   44 1
    34   18   19 am
    35   18   45 1
    36   19   20 2
    37   19   21 am
    38   21   22 1
    39   21   46 1
    40   22   23 1
    41   22   29 1
    42   22   24 1
    43   24   25 1
    44   24   47 1
    45   24   48 1
    46   25   26 1
    47   25   49 1
    48   25   50 1
    49   26   27 1
    50   26   51 1
    51   26   52 1
    52   27   28 1
    53   27   53 1
    54   27   54 1
    55   28   29 am
    56   28   55 1
    57   29   30 2
@<TRIPOS>MOLECULE
ZINC09283571
   54    57     0     0     0
SMALL
USER_CHARGES
indan-5-ylcarbamoylmethyl 2-(4-fluorophenyl)sulfonylaminobenzoate
@<TRIPOS>ATOM
      1 C1         -2.8213   -6.6655   -0.6446 C.ar      1 <0>        -0.1483
      2 C2         -3.9175   -7.5139   -0.6662 C.ar      1 <0>        -0.0433
      3 C3         -5.1981   -7.0011   -0.6656 C.ar      1 <0>        -0.1954
      4 C4         -5.3975   -5.6260   -0.6428 C.ar      1 <0>         0.2279
      5 C5         -4.2895   -4.7640   -0.6204 C.ar      1 <0>        -0.1575
      6 C6         -2.9983   -5.2998   -0.6272 C.ar      1 <0>        -0.0320
      7 C7         -4.4863   -3.3045   -0.5960 C.2       1 <0>         0.5204
      8 O1         -5.6104   -2.8429   -0.5953 O.2       1 <0>        -0.5072
      9 O2         -3.4196   -2.4810   -0.5746 O.3       1 <0>        -0.3243
     10 C8         -3.6886   -1.0544   -0.5513 C.3       1 <0>         0.0507
     11 C9         -2.3855   -0.2978   -0.5295 C.2       1 <0>         0.5154
     12 O3         -1.3336   -0.9015   -0.5333 O.2       1 <0>        -0.4922
     13 N1         -2.3890    1.0498   -0.5058 N.am      1 <0>        -0.6681
     14 C10        -1.1835    1.7542   -0.5972 C.ar      1 <0>         0.1434
     15 C11        -0.1369    1.2485   -1.3575 C.ar      1 <0>        -0.1178
     16 C12         1.0477    1.9499   -1.4484 C.ar      1 <0>        -0.0873
     17 C13         1.2005    3.1541   -0.7800 C.ar      1 <0>        -0.1077
     18 C14         0.1623    3.6575   -0.0180 C.ar      1 <0>        -0.0789
     19 C15        -1.0276    2.9572    0.0761 C.ar      1 <0>        -0.1300
     20 C16         0.5759    4.9740    0.6043 C.3       1 <0>        -0.0825
     21 C17         1.8068    5.4343   -0.2051 C.3       1 <0>        -0.1211
     22 C18         2.3823    4.0985   -0.7213 C.3       1 <0>        -0.0829
     23 N2         -6.6854   -5.1075   -0.6426 N.pl3     1 <0>        -1.0426
     24 S1         -7.8941   -5.8929    0.1726 S.o2      1 <0>         2.6915
     25 O4         -9.0424   -5.0592    0.0982 O.2       1 <0>        -0.9388
     26 O5         -7.8949   -7.2343   -0.2961 O.2       1 <0>        -0.9427
     27 C19        -7.4243   -5.9527    1.8698 C.ar      1 <0>        -0.6939
     28 C20        -6.6934   -7.0248    2.3468 C.ar      1 <0>         0.0132
     29 C21        -6.3203   -7.0704    3.6766 C.ar      1 <0>        -0.1736
     30 C22        -6.6879   -6.0470    4.5337 C.ar      1 <0>         0.1626
     31 C23        -7.4244   -4.9763    4.0560 C.ar      1 <0>        -0.1750
     32 C24        -7.7919   -4.9303    2.7246 C.ar      1 <0>         0.0162
     33 F1         -6.3277   -6.0928    5.8350 F         1 <0>        -0.1262
     34 H1         -1.8231   -7.0777   -0.6457 H         1 <0>         0.1384
     35 H2         -3.7679   -8.5833   -0.6840 H         1 <0>         0.1414
     36 H3         -6.0466   -7.6690   -0.6833 H         1 <0>         0.1727
     37 H4         -2.1406   -4.6436   -0.6150 H         1 <0>         0.1471
     38 H5         -4.2667   -0.8081    0.3394 H         1 <0>         0.1082
     39 H6         -4.2551   -0.7769   -1.4402 H         1 <0>         0.1104
     40 H7         -3.2272    1.5313   -0.4254 H         1 <0>         0.4138
     41 H8         -0.2518    0.3104   -1.8801 H         1 <0>         0.1362
     42 H9          1.8598    1.5584   -2.0430 H         1 <0>         0.1256
     43 H10        -1.8386    3.3506    0.6710 H         1 <0>         0.1246
     44 H11        -0.2291    5.7036    0.5161 H         1 <0>         0.0762
     45 H12         0.8438    4.8300    1.6510 H         1 <0>         0.0818
     46 H13         1.5075    6.0739   -1.0354 H         1 <0>         0.0734
     47 H14         2.5252    5.9430    0.4378 H         1 <0>         0.0781
     48 H15         3.1356    3.7192   -0.0309 H         1 <0>         0.0807
     49 H16         2.8109    4.2302   -1.7149 H         1 <0>         0.0759
     50 H17        -6.8772   -4.2851   -1.1199 H         1 <0>         0.4398
     51 H18        -6.4103   -7.8249    1.6789 H         1 <0>         0.1523
     52 H19        -5.7457   -7.9060    4.0481 H         1 <0>         0.1498
     53 H20        -7.7114   -4.1773    4.7236 H         1 <0>         0.1490
     54 H21        -8.3662   -4.0950    2.3517 H         1 <0>         0.1525
@<TRIPOS>BOND
     1    1    6 ar
     2    1    2 ar
     3    1   34 1
     4    2    3 ar
     5    2   35 1
     6    3    4 ar
     7    3   36 1
     8    4    5 ar
     9    4   23 1
    10    5    6 ar
    11    5    7 1
    12    6   37 1
    13    7    8 2
    14    7    9 1
    15    9   10 1
    16   10   11 1
    17   10   38 1
    18   10   39 1
    19   11   12 2
    20   11   13 am
    21   13   14 1
    22   13   40 1
    23   14   19 ar
    24   14   15 ar
    25   15   16 ar
    26   15   41 1
    27   16   17 ar
    28   16   42 1
    29   17   22 1
    30   17   18 ar
    31   18   19 ar
    32   18   20 1
    33   19   43 1
    34   20   21 1
    35   20   44 1
    36   20   45 1
    37   21   22 1
    38   21   46 1
    39   21   47 1
    40   22   48 1
    41   22   49 1
    42   23   24 1
    43   23   50 1
    44   24   25 2
    45   24   26 2
    46   24   27 1
    47   27   32 ar
    48   27   28 ar
    49   28   29 ar
    50   28   51 1
    51   29   30 ar
    52   29   52 1
    53   30   31 ar
    54   30   33 1
    55   31   32 ar
    56   31   53 1
    57   32   54 1
@<TRIPOS>MOLECULE
ZINC13640609
   69    73     0     0     0
SMALL
USER_CHARGES
(3aR,4R,9bS)-N-cyclohexyl-4-(3,4,5-trimethoxyphenyl)-3a,4,5,9b-tetrahydro-3H-cyclopenta[c]quinoline-8-sulfonamide
@<TRIPOS>ATOM
      1 C1         -4.1982   -7.8546   -2.5426 C.3       1 <0>         0.0247
      2 O1         -4.8651   -6.6257   -2.2472 O.3       1 <0>        -0.3018
      3 C2         -4.0894   -5.5834   -1.8453 C.ar      1 <0>         0.1502
      4 C3         -2.7159   -5.7410   -1.7381 C.ar      1 <0>        -0.2253
      5 C4         -1.9268   -4.6825   -1.3289 C.ar      1 <0>        -0.0304
      6 C5         -2.5032   -3.4647   -1.0200 C.ar      1 <0>        -0.2304
      7 C6         -3.8753   -3.2971   -1.1306 C.ar      1 <0>         0.1514
      8 C7         -4.6723   -4.3590   -1.5412 C.ar      1 <0>         0.0297
      9 O2         -6.0199   -4.2001   -1.6457 O.3       1 <0>        -0.3125
     10 C8         -6.7994   -4.4906   -0.4838 C.3       1 <0>         0.0358
     11 O3         -4.4409   -2.0968   -0.8323 O.3       1 <0>        -0.2987
     12 C9         -3.5609   -1.0503   -0.4170 C.3       1 <0>         0.0209
     13 C10        -0.4345   -4.8584   -1.2132 C.3       1 <0>         0.2025
     14 H1         -0.1988   -5.9199   -1.1375 H         1 <0>         0.1051
     15 C11         0.2397   -4.2774   -2.4419 C.3       1 <0>        -0.0973
     16 H2         -0.0966   -4.7889   -3.3438 H         1 <0>         0.1004
     17 C12         1.7801   -4.3300   -2.3073 C.3       1 <0>        -0.0933
     18 C13         2.2348   -3.1626   -3.1647 C.2       1 <0>        -0.1567
     19 C14         1.2650   -2.2945   -3.3082 C.2       1 <0>        -0.1592
     20 C15         0.0216   -2.7581   -2.5611 C.3       1 <0>        -0.0139
     21 H3         -0.8832   -2.5353   -3.1265 H         1 <0>         0.0921
     22 C16         0.0188   -2.0729   -1.2212 C.ar      1 <0>        -0.1484
     23 C17        -0.0058   -0.6846   -1.1985 C.ar      1 <0>         0.0201
     24 C18         0.0021   -0.0041    0.0020 C.ar      1 <0>        -0.7230
     25 C19         0.0229   -0.6990    1.1977 C.ar      1 <0>         0.0210
     26 C20         0.0395   -2.0794    1.1865 C.ar      1 <0>        -0.2055
     27 C21         0.0366   -2.7643   -0.0232 C.ar      1 <0>         0.2711
     28 N1          0.0481   -4.1637   -0.0142 N.pl3     1 <0>        -0.7341
     29 S1         -0.0218    1.7577    0.0117 S.o2      1 <0>         2.6912
     30 O4         -0.5900    2.1630   -1.2261 O.2       1 <0>        -0.9588
     31 O5         -0.5662    2.1496    1.2644 O.2       1 <0>        -0.9621
     32 N2          1.5533    2.2689   -0.0006 N.pl3     1 <0>        -1.1139
     33 C22         2.4045    1.9911   -1.1601 C.3       1 <0>         0.1505
     34 C23         3.2044    0.7109   -0.9106 C.3       1 <0>        -0.1401
     35 C24         4.0934    0.4209   -2.1216 C.3       1 <0>        -0.1152
     36 C25         5.0563    1.5898   -2.3391 C.3       1 <0>        -0.1231
     37 C26         4.2564    2.8699   -2.5886 C.3       1 <0>        -0.1190
     38 C27         3.3675    3.1600   -1.3776 C.3       1 <0>        -0.1230
     39 H4         -3.4820   -7.6946   -3.3487 H         1 <0>         0.0582
     40 H5         -3.6730   -8.2057   -1.6544 H         1 <0>         0.0563
     41 H6         -4.9308   -8.6007   -2.8503 H         1 <0>         0.1035
     42 H7         -2.2622   -6.6922   -1.9742 H         1 <0>         0.1352
     43 H8         -1.8837   -2.6415   -0.6961 H         1 <0>         0.1514
     44 H9         -6.6486   -5.5310   -0.1958 H         1 <0>         0.0434
     45 H10        -6.4901   -3.8390    0.3334 H         1 <0>         0.0440
     46 H11        -7.8540   -4.3234   -0.7026 H         1 <0>         0.0934
     47 H12        -2.8403   -0.8458   -1.2088 H         1 <0>         0.0586
     48 H13        -4.1393   -0.1497   -0.2106 H         1 <0>         0.1069
     49 H14        -3.0319   -1.3571    0.4853 H         1 <0>         0.0563
     50 H15         2.0818   -4.1873   -1.2697 H         1 <0>         0.0825
     51 H16         2.1696   -5.2702   -2.6977 H         1 <0>         0.0722
     52 H17         3.2199   -3.0621   -3.5958 H         1 <0>         0.1268
     53 H18         1.3369   -1.3786   -3.8761 H         1 <0>         0.1284
     54 H19        -0.0274   -0.1335   -2.1270 H         1 <0>         0.1374
     55 H20         0.0257   -0.1641    2.1359 H         1 <0>         0.1402
     56 H21         0.0551   -2.6270    2.1173 H         1 <0>         0.1326
     57 H22         0.3647   -4.6577    0.7582 H         1 <0>         0.4120
     58 H23         1.9123    2.7521    0.7600 H         1 <0>         0.4179
     59 H24         1.7819    1.8637   -2.0457 H         1 <0>         0.0910
     60 H25         3.8270    0.8383   -0.0251 H         1 <0>         0.0692
     61 H26         2.5184   -0.1218   -0.7557 H         1 <0>         0.0711
     62 H27         3.4708    0.2935   -3.0072 H         1 <0>         0.0639
     63 H28         4.6632   -0.4911   -1.9439 H         1 <0>         0.0646
     64 H29         5.6897    1.3831   -3.2018 H         1 <0>         0.0636
     65 H30         5.6789    1.7171   -1.4535 H         1 <0>         0.0627
     66 H31         3.6338    2.7425   -3.4741 H         1 <0>         0.0661
     67 H32         4.9425    3.7027   -2.7435 H         1 <0>         0.0679
     68 H33         2.7976    4.0720   -1.5553 H         1 <0>         0.0720
     69 H34         3.9901    3.2874   -0.4920 H         1 <0>         0.0700
@<TRIPOS>BOND
     1    1    2 1
     2    1   39 1
     3    1   40 1
     4    1   41 1
     5    2    3 1
     6    3    8 ar
     7    3    4 ar
     8    4    5 ar
     9    4   42 1
    10    5    6 ar
    11    5   13 1
    12    6    7 ar
    13    6   43 1
    14    7    8 ar
    15    7   11 1
    16    8    9 1
    17    9   10 1
    18   10   44 1
    19   10   45 1
    20   10   46 1
    21   11   12 1
    22   12   47 1
    23   12   48 1
    24   12   49 1
    25   13   14 1
    26   13   28 1
    27   13   15 1
    28   15   16 1
    29   15   20 1
    30   15   17 1
    31   17   18 1
    32   17   50 1
    33   17   51 1
    34   18   19 2
    35   18   52 1
    36   19   20 1
    37   19   53 1
    38   20   21 1
    39   20   22 1
    40   22   27 ar
    41   22   23 ar
    42   23   24 ar
    43   23   54 1
    44   24   25 ar
    45   24   29 1
    46   25   26 ar
    47   25   55 1
    48   26   27 ar
    49   26   56 1
    50   27   28 1
    51   28   57 1
    52   29   30 2
    53   29   31 2
    54   29   32 1
    55   32   33 1
    56   32   58 1
    57   33   38 1
    58   33   34 1
    59   33   59 1
    60   34   35 1
    61   34   60 1
    62   34   61 1
    63   35   36 1
    64   35   62 1
    65   35   63 1
    66   36   37 1
    67   36   64 1
    68   36   65 1
    69   37   38 1
    70   37   66 1
    71   37   67 1
    72   38   68 1
    73   38   69 1
@<TRIPOS>MOLECULE
ZINC15630512
   54    57     0     0     0
SMALL
USER_CHARGES
N-[3-[(2-chlorophenyl)sulfamoyl]phenyl]-3-(1-phenylpyrazol-4-yl)propanamide
@<TRIPOS>ATOM
      1 C1         -1.5766   12.4253  -11.9306 C.ar      1 <0>        -0.1282
      2 C2         -0.2579   12.0116  -11.8874 C.ar      1 <0>        -0.0946
      3 C3          0.0657   10.7878  -11.3349 C.ar      1 <0>        -0.1197
      4 C4         -0.9348    9.9727  -10.8227 C.ar      1 <0>         0.1575
      5 C5         -2.2585   10.3883  -10.8727 C.ar      1 <0>        -0.1418
      6 C6         -2.5752   11.6159  -11.4209 C.ar      1 <0>        -0.0920
      7 N1         -0.6095    8.7300  -10.2612 N.pl3     1 <0>        -0.3211
      8 C7         -1.4824    7.8419   -9.7341 C.2       1 <0>         0.0591
      9 C8         -0.7722    6.7758   -9.2981 C.2       1 <0>        -0.2272
     10 C9          0.5783    7.0155   -9.5747 C.2       1 <0>         0.0643
     11 N2          0.6768    8.1861  -10.1517 N.2       1 <0>        -0.2868
     12 C10        -1.3368    5.5447   -8.6372 C.3       1 <0>        -0.0248
     13 C11        -1.3744    5.7512   -7.1217 C.3       1 <0>        -0.1339
     14 C12        -1.9390    4.5202   -6.4608 C.2       1 <0>         0.5147
     15 O1         -2.2779    3.5710   -7.1356 O.2       1 <0>        -0.5175
     16 N3         -2.0673    4.4739   -5.1200 N.am      1 <0>        -0.6761
     17 C13        -2.6819    3.3728   -4.5136 C.ar      1 <0>         0.1276
     18 C14        -2.5134    2.1011   -5.0461 C.ar      1 <0>        -0.0597
     19 C15        -3.1216    1.0165   -4.4456 C.ar      1 <0>        -0.1189
     20 C16        -3.8982    1.1956   -3.3153 C.ar      1 <0>        -0.0284
     21 C17        -4.0682    2.4602   -2.7829 C.ar      1 <0>        -0.6581
     22 C18        -3.4664    3.5499   -3.3817 C.ar      1 <0>        -0.0434
     23 S1         -5.0595    2.6831   -1.3434 S.o2      1 <0>         2.6919
     24 O2         -5.9593    1.5843   -1.2958 O.2       1 <0>        -0.9411
     25 O3         -5.5050    4.0323   -1.3620 O.2       1 <0>        -0.9441
     26 N4         -4.0594    2.5329   -0.0321 N.pl3     1 <0>        -1.0516
     27 C19        -2.9776    3.4037    0.1250 C.ar      1 <0>         0.1672
     28 C20        -3.0899    4.7312   -0.2675 C.ar      1 <0>        -0.1655
     29 C21        -2.0169    5.5876   -0.1167 C.ar      1 <0>        -0.0842
     30 C22        -0.8333    5.1267    0.4302 C.ar      1 <0>        -0.1212
     31 C23        -0.7191    3.8073    0.8276 C.ar      1 <0>        -0.0860
     32 C24        -1.7886    2.9445    0.6792 C.ar      1 <0>        -0.0568
     33 Cl1        -1.6447    1.2879    1.1778 Cl        1 <0>        -0.0582
     34 H1         -1.8272   13.3827  -12.3631 H         1 <0>         0.1301
     35 H2          0.5198   12.6460  -12.2863 H         1 <0>         0.1332
     36 H3          1.0958   10.4654  -11.3010 H         1 <0>         0.1377
     37 H4         -3.0393    9.7544  -10.4791 H         1 <0>         0.1297
     38 H5         -3.6043   11.9417  -11.4561 H         1 <0>         0.1340
     39 H6         -2.5537    7.9628   -9.6703 H         1 <0>         0.1772
     40 H7          1.3982    6.3492   -9.3509 H         1 <0>         0.1900
     41 H8         -0.7079    4.6858   -8.8714 H         1 <0>         0.0831
     42 H9         -2.3473    5.3661   -9.0048 H         1 <0>         0.0792
     43 H10        -2.0034    6.6102   -6.8876 H         1 <0>         0.0988
     44 H11        -0.3639    5.9299   -6.7542 H         1 <0>         0.1007
     45 H12        -1.7337    5.2040   -4.5754 H         1 <0>         0.4146
     46 H13        -1.9077    1.9607   -5.9292 H         1 <0>         0.1497
     47 H14        -2.9910    0.0275   -4.8592 H         1 <0>         0.1400
     48 H15        -4.3731    0.3458   -2.8476 H         1 <0>         0.1432
     49 H16        -3.6032    4.5381   -2.9680 H         1 <0>         0.1432
     50 H17        -4.2244    1.8406    0.6270 H         1 <0>         0.4308
     51 H18        -4.0137    5.0921   -0.6951 H         1 <0>         0.1691
     52 H19        -2.1023    6.6187   -0.4266 H         1 <0>         0.1383
     53 H20         0.0040    5.7989    0.5469 H         1 <0>         0.1366
     54 H21         0.2068    3.4505    1.2540 H         1 <0>         0.1395
@<TRIPOS>BOND
     1    1    6 ar
     2    1    2 ar
     3    1   34 1
     4    2    3 ar
     5    2   35 1
     6    3    4 ar
     7    3   36 1
     8    4    5 ar
     9    4    7 1
    10    5    6 ar
    11    5   37 1
    12    6   38 1
    13    7   11 1
    14    7    8 1
    15    8    9 2
    16    8   39 1
    17    9   10 1
    18    9   12 1
    19   10   11 2
    20   10   40 1
    21   12   13 1
    22   12   41 1
    23   12   42 1
    24   13   14 1
    25   13   43 1
    26   13   44 1
    27   14   15 2
    28   14   16 am
    29   16   17 1
    30   16   45 1
    31   17   22 ar
    32   17   18 ar
    33   18   19 ar
    34   18   46 1
    35   19   20 ar
    36   19   47 1
    37   20   21 ar
    38   20   48 1
    39   21   22 ar
    40   21   23 1
    41   22   49 1
    42   23   24 2
    43   23   25 2
    44   23   26 1
    45   26   27 1
    46   26   50 1
    47   27   32 ar
    48   27   28 ar
    49   28   29 ar
    50   28   51 1
    51   29   30 ar
    52   29   52 1
    53   30   31 ar
    54   30   53 1
    55   31   32 ar
    56   31   54 1
    57   32   33 1
@<TRIPOS>MOLECULE
ZINC35725329
   51    53     0     0     0
SMALL
USER_CHARGES

@<TRIPOS>ATOM
      1 C1          2.3875   -0.3378   -4.5577 C.3       1 <0>        -0.1563
      2 C2          1.2692    0.2844   -3.7191 C.3       1 <0>        -0.1216
      3 C3          1.2464   -0.3678   -2.3353 C.3       1 <0>        -0.1128
      4 H1          1.1819   -1.4504   -2.4448 H         1 <0>         0.0983
      5 C4          0.0332    0.1388   -1.5527 C.3       1 <0>        -0.1640
      6 C5          2.5273   -0.0070   -1.5802 C.3       1 <0>         0.1452
      7 H2          2.4609   -0.3740   -0.5560 H         1 <0>         0.1221
      8 C6          2.6980    1.4902   -1.5673 C.2       1 <0>         0.5171
      9 O1          3.4635    2.0200   -2.3447 O.2       1 <0>        -0.4476
     10 N1          1.9999    2.2405   -0.6920 N.am      1 <0>        -0.6110
     11 C7          2.0782    3.6266   -0.7480 C.2       1 <0>         0.2240
     12 N2          2.7670    4.3872   -1.5782 N.2       1 <0>        -0.2906
     13 N3          2.7396    5.6486   -1.5083 N.2       1 <0>        -0.2247
     14 C8          1.9951    6.2220   -0.5711 C.2       1 <0>         0.0676
     15 S1          1.3121    4.7731    0.2218 S.3       1 <0>         0.1066
     16 C9          1.7857    7.6544   -0.2712 C.ar      1 <0>        -0.0150
     17 C10         0.9518    8.0355    0.7810 C.ar      1 <0>        -0.0932
     18 C11         0.7606    9.3739    1.0556 C.ar      1 <0>        -0.1167
     19 C12         1.3934   10.3375    0.2906 C.ar      1 <0>        -0.0977
     20 C13         2.2211    9.9664   -0.7542 C.ar      1 <0>        -0.1172
     21 C14         2.4256    8.6313   -1.0354 C.ar      1 <0>        -0.0701
     22 N4          3.6770   -0.6239   -2.2464 N.pl3     1 <0>        -1.1007
     23 S2          4.2135   -2.1137   -1.7618 S.o2      1 <0>         2.6927
     24 O2          5.3227   -2.4351   -2.5899 O.2       1 <0>        -0.9419
     25 O3          4.3081   -2.0701   -0.3446 O.2       1 <0>        -0.9488
     26 C15         2.9449   -3.2746   -2.1463 C.ar      1 <0>        -0.6786
     27 C16         1.9333   -3.5192   -1.2365 C.ar      1 <0>        -0.0096
     28 C17         0.9379   -4.4297   -1.5375 C.ar      1 <0>        -0.1295
     29 C18         0.9542   -5.0964   -2.7497 C.ar      1 <0>         0.0200
     30 C19         1.9670   -4.8512   -3.6599 C.ar      1 <0>        -0.1287
     31 C20         2.9586   -3.9363   -3.3600 C.ar      1 <0>        -0.0016
     32 Cl1        -0.2953   -6.2405   -3.1283 Cl        1 <0>        -0.0498
     33 H3          3.3435    0.1000   -4.2706 H         1 <0>         0.0636
     34 H4          2.4146   -1.4139   -4.3862 H         1 <0>         0.0537
     35 H5          2.2011   -0.1428   -5.6138 H         1 <0>         0.0580
     36 H6          1.4468    1.3546   -3.6135 H         1 <0>         0.0671
     37 H7          0.3113    0.1220   -4.2132 H         1 <0>         0.0714
     38 H8         -0.8809   -0.2019   -2.0389 H         1 <0>         0.0755
     39 H9          0.0696   -0.2493   -0.5348 H         1 <0>         0.0669
     40 H10         0.0466    1.2284   -1.5268 H         1 <0>         0.0595
     41 H11         1.4429    1.8129   -0.0228 H         1 <0>         0.4300
     42 H12         0.4569    7.2843    1.3787 H         1 <0>         0.1264
     43 H13         0.1152    9.6702    1.8694 H         1 <0>         0.1328
     44 H14         1.2404   11.3839    0.5097 H         1 <0>         0.1302
     45 H15         2.7119   10.7234   -1.3478 H         1 <0>         0.1336
     46 H16         3.0757    8.3428   -1.8482 H         1 <0>         0.1374
     47 H17         4.1241   -0.1596   -2.9713 H         1 <0>         0.4330
     48 H18         1.9209   -2.9990   -0.2901 H         1 <0>         0.1497
     49 H19         0.1478   -4.6209   -0.8265 H         1 <0>         0.1464
     50 H20         1.9804   -5.3715   -4.6062 H         1 <0>         0.1464
     51 H21         3.7466   -3.7413   -4.0724 H         1 <0>         0.1525
@<TRIPOS>BOND
     1    1    2 1
     2    1   33 1
     3    1   34 1
     4    1   35 1
     5    2    3 1
     6    2   36 1
     7    2   37 1
     8    3    4 1
     9    3    5 1
    10    3    6 1
    11    5   38 1
    12    5   39 1
    13    5   40 1
    14    6    7 1
    15    6    8 1
    16    6   22 1
    17    8    9 2
    18    8   10 am
    19   10   11 1
    20   10   41 1
    21   11   15 1
    22   11   12 2
    23   12   13 1
    24   13   14 2
    25   14   15 1
    26   14   16 1
    27   16   21 ar
    28   16   17 ar
    29   17   18 ar
    30   17   42 1
    31   18   19 ar
    32   18   43 1
    33   19   20 ar
    34   19   44 1
    35   20   21 ar
    36   20   45 1
    37   21   46 1
    38   22   23 1
    39   22   47 1
    40   23   24 2
    41   23   25 2
    42   23   26 1
    43   26   31 ar
    44   26   27 ar
    45   27   28 ar
    46   27   48 1
    47   28   29 ar
    48   28   49 1
    49   29   30 ar
    50   29   32 1
    51   30   31 ar
    52   30   50 1
    53   31   51 1
@<TRIPOS>MOLECULE
ZINC57349366
   67    70     0     0     0
SMALL
USER_CHARGES

@<TRIPOS>ATOM
      1 C1         -0.0187    1.5258    0.0104 C.3       1 <0>        -0.1850
      2 C2          0.0021   -0.0041    0.0020 C.3       1 <0>         0.1349
      3 C3          0.7421   -0.5109    1.2415 C.3       1 <0>        -0.1843
      4 C4         -1.4333   -0.5336    0.0129 C.3       1 <0>        -0.1397
      5 O1          0.6709   -0.4649   -1.1737 O.3       1 <0>        -0.3538
      6 C5          1.9522   -0.0848   -1.3367 C.2       1 <0>         0.6769
      7 O2          2.4879    0.6189   -0.5034 O.2       1 <0>        -0.5579
      8 N1          2.6407   -0.4850   -2.4240 N.am      1 <0>        -0.5875
      9 C6          2.1146   -1.3306   -3.5110 C.3       1 <0>         0.1030
     10 C7          2.9976   -0.9938   -4.7383 C.3       1 <0>        -0.1311
     11 C8          4.3884   -0.8014   -4.0780 C.3       1 <0>        -0.1215
     12 C9          4.0389   -0.1451   -2.7258 C.3       1 <0>         0.1399
     13 H1          4.1504    0.9368   -2.7969 H         1 <0>         0.1004
     14 C10         4.9421   -0.6865   -1.6478 C.2       1 <0>         0.5100
     15 O3          4.5469   -1.5639   -0.9096 O.2       1 <0>        -0.5241
     16 N2          6.1891   -0.1957   -1.5040 N.am      1 <0>        -0.7210
     17 C11         7.0671   -0.7220   -0.4560 C.3       1 <0>         0.1342
     18 C12         8.4147    0.0005   -0.5092 C.3       1 <0>         0.0248
     19 H2          8.8340   -0.0860   -1.5116 H         1 <0>         0.0914
     20 C13         9.3588   -0.6234    0.4860 C.ar      1 <0>        -0.1065
     21 C14         9.0343   -0.6378    1.8299 C.ar      1 <0>        -0.0735
     22 C15         9.8983   -1.2088    2.7442 C.ar      1 <0>        -0.1482
     23 C16        11.0923   -1.7683    2.3128 C.ar      1 <0>         0.1266
     24 C17        11.4153   -1.7530    0.9637 C.ar      1 <0>        -0.2049
     25 C18        10.5455   -1.1854    0.0528 C.ar      1 <0>        -0.0688
     26 O4         11.9441   -2.3302    3.2103 O.3       1 <0>        -0.3182
     27 C19        13.1549   -2.8871    2.6948 C.3       1 <0>         0.0268
     28 C20         8.2180    1.4559   -0.1709 C.2       1 <0>        -0.1668
     29 C21         7.7287    1.9496    0.9774 C.2       1 <0>         0.0668
     30 N3          7.6968    3.3165    0.9216 N.pl3     1 <0>        -0.5918
     31 H3          7.3826    3.8961    1.6331 H         1 <0>         0.4169
     32 C22         8.1770    3.7466   -0.2951 C.ar      1 <0>         0.0973
     33 C23         8.5305    2.6002   -1.0304 C.ar      1 <0>        -0.0971
     34 C24         9.0585    2.7326   -2.3158 C.ar      1 <0>        -0.0754
     35 C25         9.2329    3.9772   -2.8527 C.ar      1 <0>        -0.1438
     36 C26         8.8896    5.1112   -2.1300 C.ar      1 <0>        -0.0995
     37 C27         8.3582    5.0031   -0.8632 C.ar      1 <0>        -0.1283
     38 H4          1.0039    1.9031    0.0027 H         1 <0>         0.0861
     39 H5         -0.5459    1.8868   -0.8726 H         1 <0>         0.0587
     40 H6         -0.5289    1.8773    0.9072 H         1 <0>         0.0698
     41 H7          0.2319   -0.1594    2.1383 H         1 <0>         0.0684
     42 H8          0.7568   -1.6008    1.2356 H         1 <0>         0.0595
     43 H9          1.7647   -0.1336    1.2338 H         1 <0>         0.0872
     44 H10        -1.9605   -0.1726   -0.8702 H         1 <0>         0.0662
     45 H11        -1.4185   -1.6235    0.0069 H         1 <0>         0.0668
     46 H12        -1.9435   -0.1821    0.9097 H         1 <0>         0.0807
     47 H13         2.2112   -2.3850   -3.2520 H         1 <0>         0.0741
     48 H14         1.0727   -1.0829   -3.7138 H         1 <0>         0.0859
     49 H15         3.0130   -1.8214   -5.4475 H         1 <0>         0.0933
     50 H16         2.6633   -0.0749   -5.2198 H         1 <0>         0.0830
     51 H17         4.8807   -1.7624   -3.9286 H         1 <0>         0.0859
     52 H18         5.0111   -0.1369   -4.6770 H         1 <0>         0.0972
     53 H19         6.5052    0.5060   -2.0944 H         1 <0>         0.4015
     54 H20         6.6066   -0.5608    0.5187 H         1 <0>         0.0681
     55 H21         7.2208   -1.7896   -0.6130 H         1 <0>         0.0722
     56 H22         8.1048   -0.2021    2.1652 H         1 <0>         0.1260
     57 H23         9.6448   -1.2192    3.7940 H         1 <0>         0.1306
     58 H24        12.3442   -2.1879    0.6254 H         1 <0>         0.1286
     59 H25        10.7945   -1.1771   -0.9981 H         1 <0>         0.1258
     60 H26        13.7421   -3.3015    3.5143 H         1 <0>         0.1007
     61 H27        12.9171   -3.6772    1.9825 H         1 <0>         0.0562
     62 H28        13.7292   -2.1075    2.1943 H         1 <0>         0.0558
     63 H29         7.4075    1.3560    1.8205 H         1 <0>         0.1661
     64 H30         9.3286    1.8546   -2.8838 H         1 <0>         0.1199
     65 H31         9.6414    4.0791   -3.8473 H         1 <0>         0.1218
     66 H32         9.0339    6.0880   -2.5675 H         1 <0>         0.1242
     67 H33         8.0954    5.8916   -0.3083 H         1 <0>         0.1187
@<TRIPOS>BOND
     1    1    2 1
     2    1   38 1
     3    1   39 1
     4    1   40 1
     5    2    3 1
     6    2    4 1
     7    2    5 1
     8    3   41 1
     9    3   42 1
    10    3   43 1
    11    4   44 1
    12    4   45 1
    13    4   46 1
    14    5    6 1
    15    6    7 2
    16    6    8 am
    17    8   12 1
    18    8    9 1
    19    9   10 1
    20    9   47 1
    21    9   48 1
    22   10   11 1
    23   10   49 1
    24   10   50 1
    25   11   12 1
    26   11   51 1
    27   11   52 1
    28   12   13 1
    29   12   14 1
    30   14   15 2
    31   14   16 am
    32   16   17 1
    33   16   53 1
    34   17   18 1
    35   17   54 1
    36   17   55 1
    37   18   19 1
    38   18   20 1
    39   18   28 1
    40   20   25 ar
    41   20   21 ar
    42   21   22 ar
    43   21   56 1
    44   22   23 ar
    45   22   57 1
    46   23   24 ar
    47   23   26 1
    48   24   25 ar
    49   24   58 1
    50   25   59 1
    51   26   27 1
    52   27   60 1
    53   27   61 1
    54   27   62 1
    55   28   33 1
    56   28   29 2
    57   29   30 1
    58   29   63 1
    59   30   31 1
    60   30   32 1
    61   32   37 ar
    62   32   33 ar
    63   33   34 ar
    64   34   35 ar
    65   34   64 1
    66   35   36 ar
    67   35   65 1
    68   36   37 ar
    69   36   66 1
    70   37   67 1
@<TRIPOS>MOLECULE
ZINC12164192
   68    72     0     0     0
SMALL
USER_CHARGES
(5R)-5-[1-[(2S)-3-(1,3-benzodioxol-5-yl)-2-methyl-propyl]-4-piperidyl]-5-phenethyl-imidazolidine-2,4-dione
@<TRIPOS>ATOM
      1 C1          5.1477   -0.7534    2.3434 C.3       1 <0>        -0.1534
      2 C2          6.2096   -0.8118    1.2434 C.3       1 <0>        -0.1142
      3 H1          5.8740   -1.4792    0.4496 H         1 <0>         0.0966
      4 C3          6.4296    0.5902    0.6719 C.3       1 <0>        -0.0788
      5 C4          5.1710    1.0566   -0.0133 C.ar      1 <0>        -0.0905
      6 C5          4.2123    1.7496    0.7023 C.ar      1 <0>        -0.0977
      7 C6          3.0560    2.1791    0.0783 C.ar      1 <0>        -0.0961
      8 C7          2.8553    1.9160   -1.2670 C.ar      1 <0>         0.0430
      9 C8          3.8212    1.2183   -1.9880 C.ar      1 <0>         0.0380
     10 C9          4.9777    0.7910   -1.3561 C.ar      1 <0>        -0.1008
     11 O1          3.3935    1.0881   -3.2777 O.3       1 <0>        -0.3075
     12 C10         2.3476    2.0649   -3.4363 C.3       1 <0>         0.2125
     13 O2          1.8224    2.2228   -2.1050 O.3       1 <0>        -0.3041
     14 C11         7.5224   -1.3356    1.8291 C.3       1 <0>        -0.0036
     15 C12         8.1556   -2.6611   -0.0951 C.3       1 <0>        -0.0043
     16 C13         9.1124   -2.7271   -1.2877 C.3       1 <0>        -0.1456
     17 C14        10.5492   -2.8630   -0.7761 C.3       1 <0>        -0.0938
     18 C15        10.8704   -1.6793    0.1405 C.3       1 <0>        -0.1539
     19 C16         9.8626   -1.6436    1.2917 C.3       1 <0>         0.0031
     20 C17        11.5169   -2.8692   -1.9612 C.3       1 <0>         0.1298
     21 C18        12.9523   -2.9261   -1.4774 C.2       1 <0>         0.5311
     22 O3         13.4708   -3.8065   -0.8250 O.2       1 <0>        -0.4480
     23 N1         13.5324   -1.7946   -1.9240 N.am      1 <0>        -0.6794
     24 C19        12.6720   -1.0387   -2.6156 C.2       1 <0>         0.7031
     25 O4         12.9632    0.0291   -3.1179 O.2       1 <0>        -0.5230
     26 N2         11.4456   -1.5941   -2.6953 N.am      1 <0>        -0.7233
     27 C20        11.2162   -4.0446   -2.8935 C.3       1 <0>        -0.1122
     28 C21        12.1963   -4.0276   -4.0681 C.3       1 <0>        -0.0839
     29 C22        11.9001   -5.1852   -4.9863 C.ar      1 <0>        -0.0914
     30 C23        12.5260   -6.4018   -4.7888 C.ar      1 <0>        -0.1149
     31 C24        12.2507   -7.4651   -5.6281 C.ar      1 <0>        -0.1146
     32 C25        11.3573   -7.3088   -6.6714 C.ar      1 <0>        -0.1165
     33 C26        10.7354   -6.0907   -6.8721 C.ar      1 <0>        -0.1164
     34 C27        11.0068   -5.0289   -6.0296 C.ar      1 <0>        -0.1160
     35 H2          4.1862   -0.4841    1.9063 H         1 <0>         0.0810
     36 H3          5.0681   -1.7286    2.8238 H         1 <0>         0.0686
     37 H4          5.4324   -0.0058    3.0838 H         1 <0>         0.0701
     38 H5          7.2473    0.5648   -0.0484 H         1 <0>         0.0639
     39 H6          6.6789    1.2772    1.4806 H         1 <0>         0.0955
     40 H7          4.3671    1.9556    1.7511 H         1 <0>         0.1402
     41 H8          2.3088    2.7203    0.6398 H         1 <0>         0.1416
     42 H9          5.7286    0.2500   -1.9128 H         1 <0>         0.1303
     43 H10         1.5760    1.6937   -4.1109 H         1 <0>         0.1387
     44 H11         2.7558    3.0074   -3.8013 H         1 <0>         0.0911
     45 H12         7.9066   -0.6206    2.5565 H         1 <0>         0.1330
     46 H13         7.3452   -2.2929    2.3193 H         1 <0>         0.1366
     47 H14         8.2374   -3.5788    0.4873 H         1 <0>         0.1364
     48 H15         7.1330   -2.5499   -0.4557 H         1 <0>         0.1341
     49 H16         9.0212   -1.8156   -1.8784 H         1 <0>         0.0908
     50 H17         8.8635   -3.5890   -1.9067 H         1 <0>         0.1236
     51 H18        10.6507   -3.7938   -0.2181 H         1 <0>         0.1183
     52 H19        10.8068   -0.7513   -0.4277 H         1 <0>         0.0946
     53 H20        11.8775   -1.7919    0.5419 H         1 <0>         0.1110
     54 H21        10.0798   -0.7935    1.9383 H         1 <0>         0.1332
     55 H22         9.9364   -2.5661    1.8676 H         1 <0>         0.1359
     56 H23        14.4594   -1.5577   -1.7643 H         1 <0>         0.4392
     57 H24        10.6689   -1.2277   -3.1464 H         1 <0>         0.4405
     58 H25        11.3230   -4.9802   -2.3446 H         1 <0>         0.0973
     59 H26        10.1968   -3.9584   -3.2696 H         1 <0>         0.0927
     60 H27        12.0895   -3.0919   -4.6170 H         1 <0>         0.0788
     61 H28        13.2158   -4.1138   -3.6920 H         1 <0>         0.0700
     62 H29        13.2273   -6.5227   -3.9764 H         1 <0>         0.1213
     63 H30        12.7368   -8.4167   -5.4715 H         1 <0>         0.1252
     64 H31        11.1455   -8.1382   -7.3298 H         1 <0>         0.1249
     65 H32        10.0377   -5.9685   -7.6874 H         1 <0>         0.1243
     66 H33        10.5211   -4.0771   -6.1867 H         1 <0>         0.1197
     67 N3          8.5024   -1.4872    0.7339 N.4       1 <0>        -0.3985
     68 H34         8.4782   -0.6457    0.1461 H         1 <0>         0.4230
@<TRIPOS>BOND
     1    1    2 1
     2    1   35 1
     3    1   36 1
     4    1   37 1
     5    2    3 1
     6    2    4 1
     7    2   14 1
     8    4    5 1
     9    4   38 1
    10    4   39 1
    11    5   10 ar
    12    5    6 ar
    13    6    7 ar
    14    6   40 1
    15    7    8 ar
    16    7   41 1
    17    8   13 1
    18    8    9 ar
    19    9   10 ar
    20    9   11 1
    21   10   42 1
    22   11   12 1
    23   12   13 1
    24   12   43 1
    25   12   44 1
    26   14   45 1
    27   14   46 1
    28   14   67 1
    29   15   16 1
    30   15   47 1
    31   15   48 1
    32   15   67 1
    33   16   17 1
    34   16   49 1
    35   16   50 1
    36   17   18 1
    37   17   20 1
    38   17   51 1
    39   18   19 1
    40   18   52 1
    41   18   53 1
    42   19   54 1
    43   19   55 1
    44   19   67 1
    45   20   26 1
    46   20   21 1
    47   20   27 1
    48   21   22 2
    49   21   23 am
    50   23   24 am
    51   23   56 1
    52   24   25 2
    53   24   26 am
    54   26   57 1
    55   27   28 1
    56   27   58 1
    57   27   59 1
    58   28   29 1
    59   28   60 1
    60   28   61 1
    61   29   34 ar
    62   29   30 ar
    63   30   31 ar
    64   30   62 1
    65   31   32 ar
    66   31   63 1
    67   32   33 ar
    68   32   64 1
    69   33   34 ar
    70   33   65 1
    71   34   66 1
    72   67   68 1
@<TRIPOS>MOLECULE
ZINC20877203
   62    65     0     0     0
SMALL
USER_CHARGES
(1R)-2-[2-bromo-6-methoxy-4-[(p-tolylmethylamino)methyl]phenoxy]-1-(2,3-dihydro-1,4-benzodioxin-6-yl)ethanol
@<TRIPOS>ATOM
      1 C1        -14.1989   -7.2741   -6.6795 C.3       1 <0>        -0.1347
      2 C2        -13.0028   -6.3852   -6.9037 C.ar      1 <0>        -0.0426
      3 C3        -13.1448   -5.0109   -6.8582 C.ar      1 <0>        -0.1191
      4 C4        -12.0476   -4.1956   -7.0638 C.ar      1 <0>        -0.0880
      5 C5        -10.8083   -4.7545   -7.3139 C.ar      1 <0>        -0.1729
      6 C6        -10.6672   -6.1287   -7.3641 C.ar      1 <0>        -0.0873
      7 C7        -11.7636   -6.9442   -7.1542 C.ar      1 <0>        -0.1192
      8 C8         -9.6121   -3.8656   -7.5380 C.3       1 <0>         0.0524
      9 N1         -8.9566   -3.5933   -6.2519 N.4       1 <0>        -0.5382
     10 C9         -7.7835   -2.7276   -6.4318 C.3       1 <0>         0.0500
     11 C10        -7.1389   -2.4708   -5.0940 C.ar      1 <0>        -0.1233
     12 C11        -7.5349   -1.3854   -4.3344 C.ar      1 <0>        -0.1685
     13 C12        -6.9469   -1.1503   -3.1022 C.ar      1 <0>         0.1291
     14 C13        -5.9506   -2.0026   -2.6359 C.ar      1 <0>         0.1288
     15 C14        -5.5580   -3.0889   -3.4019 C.ar      1 <0>        -0.0830
     16 C15        -6.1528   -3.3205   -4.6294 C.ar      1 <0>        -0.0930
     17 Br1        -4.2092   -4.2539   -2.7698 Br        1 <0>         0.0009
     18 O1         -5.3674   -1.7735   -1.4287 O.3       1 <0>        -0.3042
     19 C16        -4.2028   -0.9455   -1.4176 C.3       1 <0>         0.0819
     20 C17        -3.6920   -0.8031    0.0176 C.3       1 <0>         0.1721
     21 H1         -3.5561   -1.7823    0.5000 H         1 <0>         0.0752
     22 C18        -2.3965   -0.0332    0.0157 C.ar      1 <0>        -0.1316
     23 C19        -2.4153    1.3492    0.0250 C.ar      1 <0>        -0.0906
     24 C20        -1.2294    2.0588    0.0190 C.ar      1 <0>        -0.1150
     25 C21        -0.0168    1.3855    0.0097 C.ar      1 <0>         0.0612
     26 C22         0.0021   -0.0041    0.0020 C.ar      1 <0>         0.0503
     27 C23        -1.1918   -0.7102    0.0041 C.ar      1 <0>        -0.0996
     28 O2          1.1807   -0.6848   -0.0066 O.3       1 <0>        -0.3067
     29 C24         2.3470    0.0535   -0.3870 C.3       1 <0>         0.0170
     30 C25         2.3345    1.3916    0.3645 C.3       1 <0>         0.0173
     31 O3          1.1429    2.0980    0.0024 O.3       1 <0>        -0.3045
     32 O4         -4.6609   -0.1032    0.8008 O.3       1 <0>        -0.5828
     33 O5         -7.3392   -0.0860   -2.3519 O.3       1 <0>        -0.2861
     34 C26        -8.3670    0.7460   -2.8936 C.3       1 <0>         0.0164
     35 H2        -15.0882   -6.6530   -6.4970 H         1 <0>         0.0743
     36 H3        -14.0175   -7.9199   -5.8077 H         1 <0>         0.0815
     37 H4        -14.3640   -7.8982   -7.5701 H         1 <0>         0.0821
     38 H5        -14.1129   -4.5742   -6.6625 H         1 <0>         0.1346
     39 H6        -12.1586   -3.1219   -7.0287 H         1 <0>         0.1302
     40 H7         -9.6998   -6.5654   -7.5638 H         1 <0>         0.1312
     41 H8        -11.6526   -8.0179   -7.1894 H         1 <0>         0.1349
     42 H9         -8.9028   -4.3684   -8.2119 H         1 <0>         0.1353
     43 H10        -9.9391   -2.9179   -7.9908 H         1 <0>         0.1344
     44 H11        -9.6659   -3.0906   -5.5780 H         1 <0>         0.4479
     45 H12        -7.0614   -3.2224   -7.0979 H         1 <0>         0.1405
     46 H13        -8.0978   -1.7720   -6.8769 H         1 <0>         0.1384
     47 H14        -8.3057   -0.7230   -4.7000 H         1 <0>         0.1471
     48 H15        -5.8462   -4.1673   -5.2257 H         1 <0>         0.1473
     49 H16        -3.4211   -1.4038   -2.0413 H         1 <0>         0.0744
     50 H17        -4.4552    0.0478   -1.8172 H         1 <0>         0.0703
     51 H18        -3.3583    1.8754    0.0345 H         1 <0>         0.1394
     52 H19        -1.2469    3.1386    0.0268 H         1 <0>         0.1387
     53 H20        -1.1798   -1.7901   -0.0029 H         1 <0>         0.1360
     54 H21         3.2470   -0.5205   -0.1216 H         1 <0>         0.1276
     55 H22         2.3315    0.2298   -1.4727 H         1 <0>         0.0798
     56 H23         2.3475    1.2036    1.4482 H         1 <0>         0.0822
     57 H24         3.2215    1.9783    0.0835 H         1 <0>         0.1283
     58 H25        -4.4681    0.0953    1.8654 H         1 <0>         0.4157
     59 H26        -8.5864    1.5627   -2.1901 H         1 <0>         0.1153
     60 H27        -9.2757    0.1476   -3.0557 H         1 <0>         0.0596
     61 H28        -8.0300    1.1681   -3.8519 H         1 <0>         0.0612
     62 H29        -8.6295   -4.5409   -5.7991 H         1 <0>         0.4497
@<TRIPOS>BOND
     1    1    2 1
     2    1   35 1
     3    1   36 1
     4    1   37 1
     5    2    7 ar
     6    2    3 ar
     7    3    4 ar
     8    3   38 1
     9    4    5 ar
    10    4   39 1
    11    5    6 ar
    12    5    8 1
    13    6    7 ar
    14    6   40 1
    15    7   41 1
    16    8    9 1
    17    8   42 1
    18    8   43 1
    19    9   10 1
    20    9   44 1
    21    9   62 1
    22   10   11 1
    23   10   45 1
    24   10   46 1
    25   11   16 ar
    26   11   12 ar
    27   12   13 ar
    28   12   47 1
    29   13   14 ar
    30   13   33 1
    31   14   15 ar
    32   14   18 1
    33   15   16 ar
    34   15   17 1
    35   16   48 1
    36   18   19 1
    37   19   20 1
    38   19   49 1
    39   19   50 1
    40   20   21 1
    41   20   22 1
    42   20   32 1
    43   22   27 ar
    44   22   23 ar
    45   23   24 ar
    46   23   51 1
    47   24   25 ar
    48   24   52 1
    49   25   31 1
    50   25   26 ar
    51   26   27 ar
    52   26   28 1
    53   27   53 1
    54   28   29 1
    55   29   30 1
    56   29   54 1
    57   29   55 1
    58   30   31 1
    59   30   56 1
    60   30   57 1
    61   32   58 1
    62   33   34 1
    63   34   59 1
    64   34   60 1
    65   34   61 1
@<TRIPOS>MOLECULE
ZINC35781267
   70    74     0     0     0
SMALL
USER_CHARGES

@<TRIPOS>ATOM
      1 C1         -1.2763    1.2025    0.2718 C.3       1 <0>        -0.1095
      2 C2         -1.1842   -0.3012    0.3080 C.ar      1 <0>        -0.1070
      3 C3         -1.3615   -1.0329   -0.8505 C.ar      1 <0>        -0.0814
      4 C4         -1.2776   -2.4124   -0.8178 C.ar      1 <0>        -0.1425
      5 C5         -1.0156   -3.0635    0.3737 C.ar      1 <0>        -0.0865
      6 C6         -0.8371   -2.3366    1.5345 C.ar      1 <0>        -0.2048
      7 C7         -0.9156   -0.9516    1.5034 C.ar      1 <0>         0.1151
      8 O1         -0.7347   -0.2338    2.6431 O.3       1 <0>        -0.2977
      9 C8         -0.4616   -0.9701    3.8371 C.3       1 <0>         0.0299
     10 C9         -0.2892    0.0009    5.0068 C.3       1 <0>         0.0884
     11 H1          0.4809    0.7323    4.7614 H         1 <0>         0.1347
     12 C10         0.1255   -0.7762    6.2578 C.3       1 <0>        -0.0549
     13 N1          0.3431    0.1618    7.3672 N.4       1 <0>        -0.3608
     14 C11         1.4965    1.0197    7.0641 C.3       1 <0>         0.0237
     15 C12         2.7146    0.1619    6.8373 C.ar      1 <0>        -0.1545
     16 C13         3.5204   -0.1902    7.9039 C.ar      1 <0>        -0.1034
     17 C14         4.6378   -0.9769    7.6959 C.ar      1 <0>        -0.1076
     18 C15         4.9492   -1.4120    6.4213 C.ar      1 <0>        -0.0830
     19 C16         4.1429   -1.0606    5.3548 C.ar      1 <0>        -0.1070
     20 C17         3.0231   -0.2774    5.5635 C.ar      1 <0>        -0.1016
     21 C18         0.6039   -0.5913    8.6012 C.3       1 <0>         0.0468
     22 C19         0.7053    0.3650    9.7615 C.2       1 <0>         0.3523
     23 N2          0.9502   -0.1201   11.0058 N.am      1 <0>        -0.6233
     24 H2          1.0573   -1.0760   11.1305 H         1 <0>         0.4260
     25 C20         1.0478    0.6987   12.0700 C.2       1 <0>         0.5560
     26 O2          1.2684    0.2481   13.1809 O.2       1 <0>        -0.4881
     27 C21         0.8882    2.1097   11.8738 C.2       1 <0>        -0.2036
     28 C22         0.9538    3.1761   12.8774 C.2       1 <0>        -0.0593
     29 C23         0.7633    4.4364   12.4356 C.2       1 <0>        -0.1357
     30 S1          0.5021    4.2797   10.6875 S.3       1 <0>         0.1891
     31 C24         0.6393    2.5159   10.5549 C.2       1 <0>         0.0596
     32 N3          0.5612    1.6462    9.5511 N.2       1 <0>        -0.4834
     33 C25         0.7578    5.7003   13.2380 C.3       1 <0>        -0.0491
     34 C26         2.0002    5.7342   14.1378 C.3       1 <0>        -0.1145
     35 C27         1.6521    5.0660   15.4641 C.3       1 <0>        -0.1257
     36 C28         0.6411    3.9442   15.2345 C.3       1 <0>        -0.1286
     37 C29         1.2365    2.8608   14.3436 C.3       1 <0>        -0.0633
     38 O3         -1.5251    0.6748    5.2526 O.3       1 <0>        -0.5387
     39 H3         -0.2912    1.6221    0.0678 H         1 <0>         0.0699
     40 H4         -1.9697    1.5052   -0.5128 H         1 <0>         0.0691
     41 H5         -1.6346    1.5679    1.2342 H         1 <0>         0.0702
     42 H6         -1.5662   -0.5267   -1.7823 H         1 <0>         0.1338
     43 H7         -1.4173   -2.9826   -1.7243 H         1 <0>         0.1289
     44 H8         -0.9509   -4.1413    0.3967 H         1 <0>         0.1275
     45 H9         -0.6325   -2.8456    2.4649 H         1 <0>         0.1234
     46 H10        -1.2913   -1.6458    4.0450 H         1 <0>         0.0775
     47 H11         0.4535   -1.5477    3.7064 H         1 <0>         0.0807
     48 H12        -0.6624   -1.4799    6.5262 H         1 <0>         0.1439
     49 H13         1.0475   -1.3220    6.0574 H         1 <0>         0.1501
     50 H14         1.2900    1.6022    6.1663 H         1 <0>         0.1428
     51 H15         1.6776    1.6940    7.9011 H         1 <0>         0.1592
     52 H16         3.2771    0.1497    8.8998 H         1 <0>         0.1226
     53 H17         5.2677   -1.2514    8.5291 H         1 <0>         0.1366
     54 H18         5.8226   -2.0261    6.2586 H         1 <0>         0.1378
     55 H19         4.3864   -1.4002    4.3589 H         1 <0>         0.1383
     56 H20         2.3912   -0.0060    4.7308 H         1 <0>         0.1313
     57 H21        -0.2118   -1.2923    8.7783 H         1 <0>         0.1675
     58 H22         1.5398   -1.1409    8.5005 H         1 <0>         0.1652
     59 H23         0.7718    6.5582   12.5657 H         1 <0>         0.0839
     60 H24        -0.1398    5.7355   13.8554 H         1 <0>         0.1025
     61 H25         2.8161    5.1940   13.6576 H         1 <0>         0.0673
     62 H26         2.2974    6.7679   14.3144 H         1 <0>         0.0790
     63 H27         2.5569    4.6520   15.9091 H         1 <0>         0.0682
     64 H28         1.2241    5.8058   16.1406 H         1 <0>         0.0700
     65 H29         0.3638    3.5081   16.1943 H         1 <0>         0.0723
     66 H30        -0.2485    4.3542   14.7563 H         1 <0>         0.0713
     67 H31         0.7927    1.8985   14.5987 H         1 <0>         0.0890
     68 H32         2.3139    2.8138   14.5023 H         1 <0>         0.0821
     69 H33        -2.2571    0.0844    5.4775 H         1 <0>         0.3898
     70 H34        -0.4788    0.7342    7.4898 H         1 <0>         0.4420
@<TRIPOS>BOND
     1    1    2 1
     2    1   39 1
     3    1   40 1
     4    1   41 1
     5    2    7 ar
     6    2    3 ar
     7    3    4 ar
     8    3   42 1
     9    4    5 ar
    10    4   43 1
    11    5    6 ar
    12    5   44 1
    13    6    7 ar
    14    6   45 1
    15    7    8 1
    16    8    9 1
    17    9   10 1
    18    9   46 1
    19    9   47 1
    20   10   11 1
    21   10   12 1
    22   10   38 1
    23   12   13 1
    24   12   48 1
    25   12   49 1
    26   13   14 1
    27   13   21 1
    28   13   70 1
    29   14   15 1
    30   14   50 1
    31   14   51 1
    32   15   20 ar
    33   15   16 ar
    34   16   17 ar
    35   16   52 1
    36   17   18 ar
    37   17   53 1
    38   18   19 ar
    39   18   54 1
    40   19   20 ar
    41   19   55 1
    42   20   56 1
    43   21   22 1
    44   21   57 1
    45   21   58 1
    46   22   32 2
    47   22   23 1
    48   23   24 1
    49   23   25 am
    50   25   26 2
    51   25   27 1
    52   27   31 2
    53   27   28 1
    54   28   37 1
    55   28   29 2
    56   29   30 1
    57   29   33 1
    58   30   31 1
    59   31   32 1
    60   33   34 1
    61   33   59 1
    62   33   60 1
    63   34   35 1
    64   34   61 1
    65   34   62 1
    66   35   36 1
    67   35   63 1
    68   35   64 1
    69   36   37 1
    70   36   65 1
    71   36   66 1
    72   37   67 1
    73   37   68 1
    74   38   69 1
@<TRIPOS>MOLECULE
ZINC43528087
   70    74     0     0     0
SMALL
USER_CHARGES

@<TRIPOS>ATOM
      1 C1          0.5492    2.0227    0.6452 C.3       1 <0>        -0.0945
      2 C2          0.6573    0.5275    0.4910 C.ar      1 <0>         0.3517
      3 N1          1.0187    0.0291   -0.6731 N.ar      1 <0>        -0.5160
      4 C3          1.1249   -1.2875   -0.8451 C.ar      1 <0>         0.2643
      5 C4          0.8461   -2.1341    0.2325 C.ar      1 <0>        -0.2610
      6 C5          0.4706   -1.5630    1.4343 C.ar      1 <0>         0.1808
      7 N2          0.3927   -0.2437    1.5266 N.ar      1 <0>        -0.5227
      8 C6          0.1591   -2.4307    2.6264 C.3       1 <0>        -0.0484
      9 H1         -0.5129   -1.8986    3.2998 H         1 <0>         0.1340
     10 C7         -0.5054   -3.7270    2.1576 C.3       1 <0>        -0.0090
     11 N3          0.3052   -4.8795    2.5582 N.4       1 <0>        -0.3757
     12 C8          1.6313   -4.8174    1.9390 C.3       1 <0>        -0.0188
     13 C9          2.3667   -3.5571    2.4004 C.3       1 <0>        -0.1461
     14 C10         1.4591   -2.7763    3.3645 C.3       1 <0>        -0.0853
     15 H2          1.9552   -1.8662    3.7018 H         1 <0>         0.1289
     16 C11         1.1150   -3.6889    4.5490 C.3       1 <0>        -0.1248
     17 C12         0.4197   -4.9473    4.0170 C.3       1 <0>         0.0160
     18 H3         -0.5758   -5.0215    4.4548 H         1 <0>         0.1497
     19 C13         1.2357   -6.1819    4.4053 C.3       1 <0>         0.1050
     20 N4          0.6295   -7.3752    3.8096 N.pl3     1 <0>        -0.7127
     21 C14         1.1816   -8.5869    4.0176 C.2       1 <0>         0.5448
     22 S1          2.5915   -8.7317    4.9779 S.2       1 <0>        -0.5625
     23 N5          0.6239   -9.6846    3.4695 N.pl3     1 <0>        -0.6160
     24 C15         1.2462  -10.9309    3.6110 C.ar      1 <0>         0.0893
     25 C16         1.7334  -11.3282    4.8491 C.ar      1 <0>        -0.0365
     26 C17         2.3469  -12.5579    4.9864 C.ar      1 <0>        -0.1463
     27 C18         2.4767  -13.3942    3.8905 C.ar      1 <0>         0.1208
     28 C19         1.9920  -12.9998    2.6548 C.ar      1 <0>        -0.1504
     29 C20         1.3719  -11.7736    2.5146 C.ar      1 <0>        -0.0851
     30 F1          3.0776  -14.5965    4.0268 F         1 <0>        -0.1305
     31 C21         1.5313   -1.8455   -2.1560 C.ar      1 <0>        -0.1473
     32 C22         1.6336   -3.2264   -2.3260 C.ar      1 <0>        -0.0363
     33 C23         2.0112   -3.7431   -3.5461 C.ar      1 <0>        -0.2090
     34 C24         2.2902   -2.8892   -4.6079 C.ar      1 <0>         0.2495
     35 C25         2.1893   -1.5121   -4.4406 C.ar      1 <0>        -0.2079
     36 C26         1.8065   -0.9911   -3.2239 C.ar      1 <0>        -0.0079
     37 N6          2.6720   -3.4142   -5.8413 N.pl3     1 <0>        -0.6259
     38 C27         2.6651   -4.8637   -6.0542 C.3       1 <0>         0.0854
     39 C28         3.0803   -2.5166   -6.9248 C.3       1 <0>         0.0792
     40 H4          1.5100    2.4253    0.9659 H         1 <0>         0.0935
     41 H5          0.2695    2.4672   -0.3099 H         1 <0>         0.0924
     42 H6         -0.2102    2.2570    1.3912 H         1 <0>         0.0911
     43 H7          0.9217   -3.2064    0.1284 H         1 <0>         0.1346
     44 H8         -1.4958   -3.8083    2.6054 H         1 <0>         0.1435
     45 H9         -0.6013   -3.7122    1.0719 H         1 <0>         0.1386
     46 H10         2.2064   -5.6975    2.2267 H         1 <0>         0.1372
     47 H11         1.5234   -4.7965    0.8545 H         1 <0>         0.1298
     48 H12         3.2868   -3.8381    2.9128 H         1 <0>         0.1101
     49 H13         2.6024   -2.9350    1.5370 H         1 <0>         0.1044
     50 H14         2.0294   -3.9687    5.0722 H         1 <0>         0.1162
     51 H15         0.4468   -3.1644    5.2322 H         1 <0>         0.1144
     52 H16         2.2568   -6.0722    4.0400 H         1 <0>         0.1167
     53 H17         1.2470   -6.2834    5.4905 H         1 <0>         0.1350
     54 H18        -0.1694   -7.2931    3.2655 H         1 <0>         0.3882
     55 H19        -0.2086   -9.6113    2.9771 H         1 <0>         0.4083
     56 H20         1.6330  -10.6759    5.7039 H         1 <0>         0.1562
     57 H21         2.7260  -12.8673    5.9492 H         1 <0>         0.1460
     58 H22         2.0949  -13.6532    1.8011 H         1 <0>         0.1449
     59 H23         0.9896  -11.4683    1.5517 H         1 <0>         0.1342
     60 H24         1.4174   -3.8898   -1.5017 H         1 <0>         0.1140
     61 H25         2.0909   -4.8121   -3.6780 H         1 <0>         0.1300
     62 H26         2.4072   -0.8509   -5.2663 H         1 <0>         0.1347
     63 H27         1.7236    0.0780   -3.0959 H         1 <0>         0.1384
     64 H28         1.6894   -5.1709   -6.4307 H         1 <0>         0.0557
     65 H29         3.4343   -5.1280   -6.7799 H         1 <0>         0.0743
     66 H30         2.8664   -5.3705   -5.1105 H         1 <0>         0.0707
     67 H31         2.9352   -1.4821   -6.6136 H         1 <0>         0.0824
     68 H32         4.1323   -2.6822   -7.1568 H         1 <0>         0.0618
     69 H33         2.4770   -2.7178   -7.8100 H         1 <0>         0.0646
     70 H34        -0.1513   -5.7190    2.2344 H         1 <0>         0.4153
@<TRIPOS>BOND
     1    1    2 1
     2    1   40 1
     3    1   41 1
     4    1   42 1
     5    2    7 ar
     6    2    3 ar
     7    3    4 ar
     8    4    5 ar
     9    4   31 1
    10    5    6 ar
    11    5   43 1
    12    6    7 ar
    13    6    8 1
    14    8    9 1
    15    8   14 1
    16    8   10 1
    17   10   11 1
    18   10   44 1
    19   10   45 1
    20   11   17 1
    21   11   12 1
    22   11   70 1
    23   12   13 1
    24   12   46 1
    25   12   47 1
    26   13   14 1
    27   13   48 1
    28   13   49 1
    29   14   15 1
    30   14   16 1
    31   16   17 1
    32   16   50 1
    33   16   51 1
    34   17   18 1
    35   17   19 1
    36   19   20 1
    37   19   52 1
    38   19   53 1
    39   20   21 1
    40   20   54 1
    41   21   22 2
    42   21   23 1
    43   23   24 1
    44   23   55 1
    45   24   29 ar
    46   24   25 ar
    47   25   26 ar
    48   25   56 1
    49   26   27 ar
    50   26   57 1
    51   27   28 ar
    52   27   30 1
    53   28   29 ar
    54   28   58 1
    55   29   59 1
    56   31   36 ar
    57   31   32 ar
    58   32   33 ar
    59   32   60 1
    60   33   34 ar
    61   33   61 1
    62   34   35 ar
    63   34   37 1
    64   35   36 ar
    65   35   62 1
    66   36   63 1
    67   37   38 1
    68   37   39 1
    69   38   64 1
    70   38   65 1
    71   38   66 1
    72   39   67 1
    73   39   68 1
    74   39   69 1
@<TRIPOS>MOLECULE
ZINC63110578
   54    58     0     0     0
SMALL
USER_CHARGES

@<TRIPOS>ATOM
      1 C1         -0.0184    1.5028    0.0103 C.3       1 <0>        -0.1479
      2 C2          0.0021   -0.0041    0.0020 C.2       1 <0>         0.3545
      3 C3          0.0229   -0.7027    1.1972 C.2       1 <0>        -0.3657
      4 C4          0.0505   -2.1614    1.3817 C.2       1 <0>         0.0294
      5 N1          0.0640   -2.3947    2.6578 N.2       1 <0>        -0.1576
      6 N2          0.0479   -1.2083    3.3907 N.am      1 <0>        -0.4508
      7 C5          0.0288   -0.1488    2.5567 C.2       1 <0>         0.5569
      8 O1          0.0164    1.0304    2.8686 O.2       1 <0>        -0.5085
      9 C6          0.0571   -1.1250    4.8533 C.3       1 <0>         0.4312
     10 H1          0.0279   -0.0871    5.1849 H         1 <0>         0.1648
     11 N3          1.2189   -1.8271    5.4154 N.pl3     1 <0>        -0.7337
     12 C7          0.9720   -2.9138    6.2528 C.ar      1 <0>         0.1755
     13 C8          1.9525   -3.7036    6.8794 C.ar      1 <0>        -0.1525
     14 C9          1.6057   -4.7590    7.6904 C.ar      1 <0>        -0.0742
     15 C10         0.2801   -5.0795    7.9179 C.ar      1 <0>        -0.1411
     16 C11        -0.7072   -4.3189    7.3138 C.ar      1 <0>        -0.0410
     17 C12        -0.3589   -3.2632    6.5020 C.ar      1 <0>        -0.1352
     18 S1         -1.3281   -2.0901    5.5791 S.3       1 <0>        -0.1058
     19 C13         0.0608   -3.1972    0.2871 C.3       1 <0>         0.5459
     20 F1          0.0880   -4.4755    0.8550 F         1 <0>        -0.1457
     21 F2         -1.0902   -3.0594   -0.4962 F         1 <0>        -0.1633
     22 F3          1.1939   -3.0183   -0.5136 F         1 <0>        -0.1646
     23 N4          0.0001   -0.6720   -1.1695 N.pl3     1 <0>        -0.6940
     24 C14        -0.0220    0.0673   -2.4341 C.3       1 <0>         0.1066
     25 C15        -0.0196   -0.9206   -3.6024 C.3       1 <0>        -0.1098
     26 C16        -0.0423   -0.1602   -4.9033 C.2       1 <0>         0.0637
     27 C17         1.0222    0.1787   -5.6657 C.ar      1 <0>        -0.1608
     28 C18         2.4646   -0.0493   -5.5172 C.ar      1 <0>        -0.0175
     29 C19         3.3044    0.4216   -6.4670 C.ar      1 <0>        -0.1460
     30 C20         2.8330    1.1208   -7.5866 C.ar      1 <0>         0.0559
     31 C21         1.5223    1.3694   -7.7924 C.ar      1 <0>        -0.2092
     32 C22         0.5499    0.9194   -6.8573 C.ar      1 <0>         0.3289
     33 N5         -0.7558    1.0339   -6.8325 N.pl3     1 <0>        -0.5822
     34 C23        -1.2605    0.3727   -5.6239 C.3       1 <0>         0.0606
     35 H2          1.0042    1.8801    0.0026 H         1 <0>         0.1074
     36 H3         -0.5455    1.8639   -0.8728 H         1 <0>         0.0834
     37 H4         -0.5286    1.8543    0.9071 H         1 <0>         0.1190
     38 H5          2.1242   -1.5450    5.2111 H         1 <0>         0.4131
     39 H6          2.9966   -3.4776    6.7207 H         1 <0>         0.1230
     40 H7          2.3819   -5.3470    8.1576 H         1 <0>         0.1308
     41 H8          0.0186   -5.9103    8.5564 H         1 <0>         0.1357
     42 H9         -1.7483   -4.5535    7.4795 H         1 <0>         0.1319
     43 H10         0.0132   -1.6419   -1.1748 H         1 <0>         0.4036
     44 H11        -0.9209    0.6820   -2.4799 H         1 <0>         0.0932
     45 H12         0.8588    0.7063   -2.4968 H         1 <0>         0.0937
     46 H13         0.8793   -1.5354   -3.5565 H         1 <0>         0.1203
     47 H14        -0.9004   -1.5596   -3.5397 H         1 <0>         0.1237
     48 H15         2.8496   -0.5850   -4.6621 H         1 <0>         0.1614
     49 H16         4.3660    0.2550   -6.3597 H         1 <0>         0.1593
     50 H17         3.5479    1.4755   -8.3143 H         1 <0>         0.1624
     51 H18         1.2104    1.9133   -8.6719 H         1 <0>         0.1620
     52 H19        -1.9269   -0.4471   -5.8920 H         1 <0>         0.1769
     53 H20        -1.7839    1.0928   -4.9949 H         1 <0>         0.1750
     54 H21        -1.2980    1.4780   -7.5031 H         1 <0>         0.4573
@<TRIPOS>BOND
     1    1    2 1
     2    1   35 1
     3    1   36 1
     4    1   37 1
     5    2    3 2
     6    2   23 1
     7    3    7 1
     8    3    4 1
     9    4    5 2
    10    4   19 1
    11    5    6 1
    12    6    7 am
    13    6    9 1
    14    7    8 2
    15    9   10 1
    16    9   18 1
    17    9   11 1
    18   11   12 1
    19   11   38 1
    20   12   17 ar
    21   12   13 ar
    22   13   14 ar
    23   13   39 1
    24   14   15 ar
    25   14   40 1
    26   15   16 ar
    27   15   41 1
    28   16   17 ar
    29   16   42 1
    30   17   18 1
    31   19   20 1
    32   19   21 1
    33   19   22 1
    34   23   24 1
    35   23   43 1
    36   24   25 1
    37   24   44 1
    38   24   45 1
    39   25   26 1
    40   25   46 1
    41   25   47 1
    42   26   34 1
    43   26   27 2
    44   27   32 ar
    45   27   28 ar
    46   28   29 ar
    47   28   48 1
    48   29   30 ar
    49   29   49 1
    50   30   31 ar
    51   30   50 1
    52   31   32 ar
    53   31   51 1
    54   32   33 2
    55   33   34 1
    56   33   54 1
    57   34   52 1
    58   34   53 1
@<TRIPOS>MOLECULE
ZINC08442180
   55    58     0     0     0
SMALL
USER_CHARGES
2-[4-methyl-5-[(4-phenylthiazol-2-yl)carbamoylmethylsulfanyl]-1,2,4-triazol-3-yl]-N-(p-tolyl)acetamide
@<TRIPOS>ATOM
      1 C1        -11.2910    2.7417    7.0696 C.3       1 <0>        -0.1156
      2 C2        -10.7856    2.8121    5.6516 C.ar      1 <0>        -0.0967
      3 C3         -9.5557    3.3854    5.3852 C.ar      1 <0>        -0.1031
      4 C4         -9.0897    3.4514    4.0868 C.ar      1 <0>        -0.1142
      5 C5         -9.8574    2.9409    3.0483 C.ar      1 <0>         0.1327
      6 C6        -11.0942    2.3701    3.3186 C.ar      1 <0>        -0.1382
      7 C7        -11.5524    2.3028    4.6198 C.ar      1 <0>        -0.1034
      8 N1         -9.3883    3.0067    1.7316 N.am      1 <0>        -0.6703
      9 C8         -8.0714    2.8724    1.4779 C.2       1 <0>         0.5162
     10 O1         -7.2836    2.7787    2.3953 O.2       1 <0>        -0.5034
     11 C9         -7.5779    2.8388    0.0544 C.3       1 <0>        -0.0526
     12 C10        -6.0791    2.6825    0.0459 C.2       1 <0>         0.2020
     13 N2         -5.2022    3.6462    0.0547 N.2       1 <0>        -0.2643
     14 N3         -4.0124    3.1602    0.0482 N.2       1 <0>        -0.2886
     15 C11        -4.0665    1.8486    0.0264 C.2       1 <0>         0.1419
     16 N4         -5.3874    1.5028    0.0276 N.pl3     1 <0>        -0.4527
     17 C12        -5.9474    0.1492    0.0124 C.3       1 <0>         0.0672
     18 S1         -2.6942    0.7436    0.0071 S.3       1 <0>         0.0948
     19 C13        -1.3314    1.9347    0.0162 C.3       1 <0>        -0.1449
     20 C14        -0.0182    1.1956    0.0016 C.2       1 <0>         0.5389
     21 O2         -0.0050   -0.0171   -0.0135 O.2       1 <0>        -0.4821
     22 N5          1.1415    1.8822   -0.0003 N.am      1 <0>        -0.6015
     23 C15         2.3523    1.2008   -0.0195 C.2       1 <0>         0.3127
     24 N6          3.5814    1.6819   -0.0246 N.2       1 <0>        -0.5263
     25 C16         4.6344    0.8785   -0.0435 C.2       1 <0>         0.1179
     26 C17         4.4450   -0.4754   -0.0581 C.2       1 <0>        -0.2357
     27 S2          2.6590   -0.5601   -0.0361 S.3       1 <0>         0.1244
     28 C18         6.0062    1.4424   -0.0493 C.ar      1 <0>        -0.0269
     29 C19         7.1115    0.5934   -0.0639 C.ar      1 <0>        -0.1037
     30 C20         8.3855    1.1239   -0.0741 C.ar      1 <0>        -0.1206
     31 C21         8.5668    2.4952   -0.0588 C.ar      1 <0>        -0.1135
     32 C22         7.4736    3.3425   -0.0394 C.ar      1 <0>        -0.1233
     33 C23         6.1949    2.8234   -0.0344 C.ar      1 <0>        -0.0865
     34 H1        -11.8648    3.6405    7.2958 H         1 <0>         0.0712
     35 H2        -11.9284    1.8651    7.1850 H         1 <0>         0.0666
     36 H3        -10.4454    2.6687    7.7535 H         1 <0>         0.0667
     37 H4         -8.9592    3.7822    6.1933 H         1 <0>         0.1257
     38 H5         -8.1291    3.8993    3.8794 H         1 <0>         0.1385
     39 H6        -11.6954    1.9759    2.5127 H         1 <0>         0.1262
     40 H7        -12.5125    1.8557    4.8311 H         1 <0>         0.1269
     41 H8        -10.0108    3.1489    1.0015 H         1 <0>         0.4132
     42 H9         -7.8491    3.7683   -0.4462 H         1 <0>         0.1376
     43 H10        -8.0339    1.9981   -0.4684 H         1 <0>         0.1192
     44 H11        -6.0823   -0.1998    1.0362 H         1 <0>         0.0902
     45 H12        -6.9107    0.1602   -0.4975 H         1 <0>         0.0955
     46 H13        -5.2659   -0.5201   -0.5127 H         1 <0>         0.0979
     47 H14        -1.3923    2.5496    0.9141 H         1 <0>         0.1402
     48 H15        -1.3997    2.5716   -0.8657 H         1 <0>         0.1401
     49 H16         1.1310    2.8521    0.0117 H         1 <0>         0.4320
     50 H17         5.1728   -1.2731   -0.0735 H         1 <0>         0.2005
     51 H18         6.9712   -0.4774   -0.0710 H         1 <0>         0.1251
     52 H19         9.2427    0.4670   -0.0899 H         1 <0>         0.1262
     53 H20         9.5657    2.9058   -0.0623 H         1 <0>         0.1235
     54 H21         7.6210    4.4123   -0.0278 H         1 <0>         0.1248
     55 H22         5.3421    3.4859   -0.0193 H         1 <0>         0.1314
@<TRIPOS>BOND
     1    1    2 1
     2    1   34 1
     3    1   35 1
     4    1   36 1
     5    2    7 ar
     6    2    3 ar
     7    3    4 ar
     8    3   37 1
     9    4    5 ar
    10    4   38 1
    11    5    6 ar
    12    5    8 1
    13    6    7 ar
    14    6   39 1
    15    7   40 1
    16    8    9 am
    17    8   41 1
    18    9   10 2
    19    9   11 1
    20   11   12 1
    21   11   42 1
    22   11   43 1
    23   12   16 1
    24   12   13 2
    25   13   14 1
    26   14   15 2
    27   15   16 1
    28   15   18 1
    29   16   17 1
    30   17   44 1
    31   17   45 1
    32   17   46 1
    33   18   19 1
    34   19   20 1
    35   19   47 1
    36   19   48 1
    37   20   21 2
    38   20   22 am
    39   22   23 1
    40   22   49 1
    41   23   27 1
    42   23   24 2
    43   24   25 1
    44   25   26 2
    45   25   28 1
    46   26   27 1
    47   26   50 1
    48   28   33 ar
    49   28   29 ar
    50   29   30 ar
    51   29   51 1
    52   30   31 ar
    53   30   52 1
    54   31   32 ar
    55   31   53 1
    56   32   33 ar
    57   32   54 1
    58   33   55 1
@<TRIPOS>MOLECULE
ZINC10603438
   59    62     0     0     0
SMALL
USER_CHARGES
ethyl 4-(2,6-dioxabicyclo[5.4.0]undeca-8,10,12-trien-9-ylsulfanylmethyl)-6-(4-methoxyphenyl)-2-oxo-3,6-dihydro-1H-pyrimidine-5-carboxylate
@<TRIPOS>ATOM
      1 C1          6.5691   -1.0229    3.2848 C.3       1 <0>        -0.1516
      2 C2          7.0659   -2.3698    2.7556 C.3       1 <0>         0.0588
      3 O1          7.7469   -2.1724    1.5149 O.3       1 <0>        -0.3327
      4 C3          8.2503   -3.2691    0.9111 C.2       1 <0>         0.5422
      5 O2          8.1140   -4.3634    1.4254 O.2       1 <0>        -0.4903
      6 C4          8.9365   -3.1467   -0.3198 C.2       1 <0>        -0.2238
      7 C5          8.2647   -2.9974   -1.4818 C.2       1 <0>         0.2179
      8 N1          8.9285   -2.8738   -2.6688 N.am      1 <0>        -0.6457
      9 C6         10.2628   -2.8948   -2.7791 C.2       1 <0>         0.7098
     10 O3         10.7636   -2.7768   -3.8804 O.2       1 <0>        -0.5576
     11 N2         11.0686   -3.0422   -1.7089 N.am      1 <0>        -0.7094
     12 C7         10.4501   -3.1839   -0.3800 C.3       1 <0>         0.2495
     13 H1         10.7834   -4.1298    0.0467 H         1 <0>         0.0979
     14 C8         10.9721   -2.0742    0.4960 C.ar      1 <0>        -0.1539
     15 C9         11.1415   -0.8050   -0.0255 C.ar      1 <0>        -0.0481
     16 C10        11.6145    0.2152    0.7770 C.ar      1 <0>        -0.2046
     17 C11        11.9307   -0.0374    2.1039 C.ar      1 <0>         0.1378
     18 C12        11.7651   -1.3132    2.6232 C.ar      1 <0>        -0.1477
     19 C13        11.2860   -2.3285    1.8183 C.ar      1 <0>        -0.0644
     20 O4         12.4023    0.9630    2.8937 O.3       1 <0>        -0.3161
     21 C14        12.5473    2.2509    2.2919 C.3       1 <0>         0.0259
     22 C15         6.7582   -2.9606   -1.4676 C.3       1 <0>        -0.1012
     23 S1          6.1929   -1.2532   -1.7039 S.3       1 <0>        -0.0540
     24 C16         4.4357   -1.3765   -1.6636 C.ar      1 <0>        -0.0839
     25 C17         3.8307   -2.6135   -1.4794 C.ar      1 <0>        -0.1259
     26 C18         2.4520   -2.7140   -1.4472 C.ar      1 <0>        -0.0927
     27 C19         1.6752   -1.5778   -1.5987 C.ar      1 <0>         0.0652
     28 C20         2.2761   -0.3408   -1.7834 C.ar      1 <0>         0.0890
     29 C21         3.6559   -0.2362   -1.8157 C.ar      1 <0>        -0.0937
     30 O5          1.4989    0.7708   -1.9340 O.3       1 <0>        -0.3167
     31 C22         0.7673    1.1831   -0.7778 C.3       1 <0>         0.0600
     32 C23        -0.5430    0.4192   -0.6680 C.3       1 <0>        -0.1891
     33 C24        -0.3279   -1.0688   -0.4399 C.3       1 <0>         0.0594
     34 O6          0.3125   -1.6674   -1.5684 O.3       1 <0>        -0.3175
     35 H2          5.8853   -0.5784    2.5617 H         1 <0>         0.0671
     36 H3          6.0497   -1.1735    4.2311 H         1 <0>         0.0793
     37 H4          7.4185   -0.3573    3.4384 H         1 <0>         0.0679
     38 H5          6.2165   -3.0355    2.6020 H         1 <0>         0.0665
     39 H6          7.7497   -2.8144    3.4787 H         1 <0>         0.0698
     40 H7          8.4040   -2.7642   -3.4773 H         1 <0>         0.4310
     41 H8         12.0331   -3.0551   -1.8116 H         1 <0>         0.4365
     42 H9         10.9001   -0.6100   -1.0599 H         1 <0>         0.1207
     43 H10        11.7429    1.2075    0.3703 H         1 <0>         0.1298
     44 H11        12.0102   -1.5123    3.6560 H         1 <0>         0.1334
     45 H12        11.1570   -3.3219    2.2221 H         1 <0>         0.1296
     46 H13        12.9312    2.9555    3.0296 H         1 <0>         0.1020
     47 H14        13.2434    2.1850    1.4557 H         1 <0>         0.0568
     48 H15        11.5778    2.5947    1.9313 H         1 <0>         0.0571
     49 H16         6.3946   -3.3345   -0.5105 H         1 <0>         0.1138
     50 H17         6.3719   -3.5859   -2.2725 H         1 <0>         0.1212
     51 H18         4.4385   -3.4984   -1.3614 H         1 <0>         0.1306
     52 H19         1.9824   -3.6760   -1.3047 H         1 <0>         0.1413
     53 H20         4.1241    0.7265   -1.9584 H         1 <0>         0.1421
     54 H21         0.5557    2.2500   -0.8487 H         1 <0>         0.1077
     55 H22         1.3677    0.9955    0.1124 H         1 <0>         0.0590
     56 H23        -1.1103    0.5569   -1.5885 H         1 <0>         0.0859
     57 H24        -1.1193    0.8243    0.1638 H         1 <0>         0.0934
     58 H25         0.2955   -1.2100    0.4430 H         1 <0>         0.0581
     59 H26        -1.2924   -1.5500   -0.2778 H         1 <0>         0.1068
@<TRIPOS>BOND
     1    1    2 1
     2    1   35 1
     3    1   36 1
     4    1   37 1
     5    2    3 1
     6    2   38 1
     7    2   39 1
     8    3    4 1
     9    4    5 2
    10    4    6 1
    11    6   12 1
    12    6    7 2
    13    7    8 1
    14    7   22 1
    15    8    9 am
    16    8   40 1
    17    9   10 2
    18    9   11 am
    19   11   12 1
    20   11   41 1
    21   12   13 1
    22   12   14 1
    23   14   19 ar
    24   14   15 ar
    25   15   16 ar
    26   15   42 1
    27   16   17 ar
    28   16   43 1
    29   17   18 ar
    30   17   20 1
    31   18   19 ar
    32   18   44 1
    33   19   45 1
    34   20   21 1
    35   21   46 1
    36   21   47 1
    37   21   48 1
    38   22   23 1
    39   22   49 1
    40   22   50 1
    41   23   24 1
    42   24   29 ar
    43   24   25 ar
    44   25   26 ar
    45   25   51 1
    46   26   27 ar
    47   26   52 1
    48   27   34 1
    49   27   28 ar
    50   28   29 ar
    51   28   30 1
    52   29   53 1
    53   30   31 1
    54   31   32 1
    55   31   54 1
    56   31   55 1
    57   32   33 1
    58   32   56 1
    59   32   57 1
    60   33   34 1
    61   33   58 1
    62   33   59 1
@<TRIPOS>MOLECULE
ZINC20183335
   57    60     0     0     0
SMALL
USER_CHARGES
1-(3-chloro-2-methyl-phenyl)-3-[(1-methyl-5-morpholinosulfonyl-indol-3-yl)methyleneamino]thiourea
@<TRIPOS>ATOM
      1 C1          6.3653    9.5219   -1.5939 C.3       1 <0>        -0.1177
      2 C2          6.6609   10.3732   -0.3860 C.ar      1 <0>        -0.0798
      3 C3          5.7522   10.4317    0.6627 C.ar      1 <0>         0.1348
      4 C4          6.0282   11.2173    1.7741 C.ar      1 <0>        -0.0655
      5 C5          7.2048   11.9386    1.8338 C.ar      1 <0>        -0.1052
      6 C6          8.1075   11.8798    0.7885 C.ar      1 <0>        -0.0994
      7 C7          7.8359   11.0978   -0.3210 C.ar      1 <0>        -0.0355
      8 Cl1         8.9724   11.0268   -1.6313 Cl        1 <0>        -0.0636
      9 N1          4.5618    9.7000    0.6000 N.pl3     1 <0>        -0.6216
     10 C8          3.4079   10.2530    1.0231 C.2       1 <0>         0.5885
     11 S1          3.3873   11.8729    1.5766 S.2       1 <0>        -0.6141
     12 N2          2.2701    9.5307    1.0105 N.pl3     1 <0>        -0.5550
     13 N3          2.3049    8.1748    0.6595 N.2       1 <0>        -0.2948
     14 C9          1.1975    7.5085    0.5312 C.2       1 <0>         0.1965
     15 C10        -0.0934    8.2160    0.5483 C.2       1 <0>        -0.1886
     16 C11        -0.3030    9.5318    0.2753 C.2       1 <0>         0.0762
     17 N4         -1.6305    9.8201    0.3934 N.pl3     1 <0>        -0.4655
     18 C12        -2.3344    8.6897    0.7506 C.ar      1 <0>         0.1453
     19 C13        -1.4119    7.6355    0.8584 C.ar      1 <0>        -0.1047
     20 C14        -1.8486    6.3588    1.2051 C.ar      1 <0>         0.0421
     21 C15        -3.1879    6.1359    1.4376 C.ar      1 <0>        -0.6943
     22 C16        -4.1004    7.1754    1.3286 C.ar      1 <0>        -0.0071
     23 C17        -3.6820    8.4448    0.9939 C.ar      1 <0>        -0.1356
     24 S2         -3.7449    4.5228    1.8763 S.o2      1 <0>         2.6936
     25 O1         -5.0801    4.4115    1.4029 O.2       1 <0>        -0.9496
     26 O2         -2.7203    3.6191    1.4855 O.2       1 <0>        -0.9506
     27 N5         -3.8224    4.4643    3.5294 N.pl3     1 <0>        -1.0012
     28 C18        -2.6340    4.1347    4.3323 C.3       1 <0>         0.0849
     29 C19        -2.4788    5.2083    5.4213 C.3       1 <0>         0.0458
     30 O3         -3.7113    5.3343    6.1347 O.3       1 <0>        -0.3736
     31 C20        -4.8098    5.7734    5.3320 C.3       1 <0>         0.0457
     32 C21        -5.0831    4.7343    4.2387 C.3       1 <0>         0.0820
     33 C22        -2.2235   11.1414    0.1731 C.3       1 <0>         0.0606
     34 H1          5.3924    9.0254   -1.4634 H         1 <0>         0.0607
     35 H2          7.1523    8.7620   -1.7084 H         1 <0>         0.0806
     36 H3          6.3354   10.1569   -2.4916 H         1 <0>         0.0808
     37 H4          5.3255   11.2608    2.5931 H         1 <0>         0.1518
     38 H5          7.4195   12.5496    2.6981 H         1 <0>         0.1381
     39 H6          9.0263   12.4453    0.8375 H         1 <0>         0.1358
     40 H7          4.5675    8.6732    0.2054 H         1 <0>         0.4450
     41 H8          1.3141   10.0058    1.2758 H         1 <0>         0.4383
     42 H9          1.2241    6.4155    0.4098 H         1 <0>         0.2010
     43 H10         0.4657   10.2411    0.0062 H         1 <0>         0.1835
     44 H11        -1.1405    5.5479    1.2913 H         1 <0>         0.1469
     45 H12        -5.1480    6.9890    1.5136 H         1 <0>         0.1447
     46 H13        -4.4009    9.2464    0.9100 H         1 <0>         0.1348
     47 H14        -2.7659    3.1446    4.7930 H         1 <0>         0.0880
     48 H15        -1.7454    4.1220    3.6840 H         1 <0>         0.0985
     49 H16        -1.6784    4.9132    6.1157 H         1 <0>         0.1093
     50 H17        -2.2224    6.1704    4.9538 H         1 <0>         0.0565
     51 H18        -5.7029    5.8878    5.9638 H         1 <0>         0.1100
     52 H19        -4.5622    6.7399    4.8688 H         1 <0>         0.0568
     53 H20        -5.8277    5.1225    3.5281 H         1 <0>         0.1035
     54 H21        -5.4570    3.8031    4.6894 H         1 <0>         0.0873
     55 H22        -3.3100   11.0875    0.3361 H         1 <0>         0.0966
     56 H23        -2.0232   11.4658   -0.8587 H         1 <0>         0.0878
     57 H24        -1.7825   11.8631    0.8765 H         1 <0>         0.0905
@<TRIPOS>BOND
     1    1    2 1
     2    1   34 1
     3    1   35 1
     4    1   36 1
     5    2    7 ar
     6    2    3 ar
     7    3    4 ar
     8    3    9 1
     9    4    5 ar
    10    4   37 1
    11    5    6 ar
    12    5   38 1
    13    6    7 ar
    14    6   39 1
    15    7    8 1
    16    9   10 1
    17    9   40 1
    18   10   11 2
    19   10   12 1
    20   12   13 1
    21   12   41 1
    22   13   14 2
    23   14   15 1
    24   14   42 1
    25   15   19 1
    26   15   16 2
    27   16   17 1
    28   16   43 1
    29   17   18 1
    30   17   33 1
    31   18   23 ar
    32   18   19 ar
    33   19   20 ar
    34   20   21 ar
    35   20   44 1
    36   21   22 ar
    37   21   24 1
    38   22   23 ar
    39   22   45 1
    40   23   46 1
    41   24   25 2
    42   24   26 2
    43   24   27 1
    44   27   32 1
    45   27   28 1
    46   28   29 1
    47   28   47 1
    48   28   48 1
    49   29   30 1
    50   29   49 1
    51   29   50 1
    52   30   31 1
    53   31   32 1
    54   31   51 1
    55   31   52 1
    56   32   53 1
    57   32   54 1
    58   33   55 1
    59   33   56 1
    60   33   57 1
@<TRIPOS>MOLECULE
ZINC29567951
   65    67     0     0     0
SMALL
USER_CHARGES
tert-butyl 2-[[(2R)-3-methyl-2-[(3-methylbenzoyl)amino]butanoyl]amino]-6,7-dihydro-4H-thiazolo[5,4-c]pyridine-5-carboxylate
@<TRIPOS>ATOM
      1 C1         -3.9961    2.1345    1.4823 C.3       1 <0>        -0.1196
      2 C2         -2.6171    2.7276    1.6154 C.ar      1 <0>        -0.0921
      3 C3         -1.6504    2.0684    2.3543 C.ar      1 <0>        -0.0928
      4 C4         -0.3803    2.6029    2.4764 C.ar      1 <0>        -0.1217
      5 C5         -0.0710    3.8008    1.8655 C.ar      1 <0>        -0.0915
      6 C6         -1.0430    4.4736    1.1237 C.ar      1 <0>        -0.1319
      7 C7         -2.3228    3.9289    1.0049 C.ar      1 <0>        -0.0601
      8 C8         -0.7184    5.7574    0.4661 C.2       1 <0>         0.5680
      9 O1         -1.5670    6.3412   -0.1794 O.2       1 <0>        -0.5293
     10 N1          0.5183    6.2804    0.5824 N.am      1 <0>        -0.7283
     11 C9          0.8398    7.5525   -0.0692 C.3       1 <0>         0.1486
     12 H1         -0.0566    8.1879   -0.0165 H         1 <0>         0.1185
     13 C10         1.2452    7.2934   -1.5216 C.3       1 <0>        -0.0975
     14 C11         0.0662    6.6783   -2.2782 C.3       1 <0>        -0.1396
     15 C12         1.6427    8.6143   -2.1836 C.3       1 <0>        -0.1619
     16 C13         1.9797    8.2162    0.6597 C.2       1 <0>         0.5225
     17 O2          2.7705    7.5449    1.2881 O.2       1 <0>        -0.4991
     18 N2          2.1202    9.5558    0.6133 N.am      1 <0>        -0.6186
     19 C14         3.2243   10.1597    1.2037 C.2       1 <0>         0.2927
     20 N3          3.5382   11.4372    1.2589 N.2       1 <0>        -0.5472
     21 C15         4.6385   11.8733    1.8689 C.2       1 <0>         0.1016
     22 C16         5.4264   10.9159    2.4242 C.2       1 <0>        -0.2747
     23 S1          4.5499    9.4218    2.0528 S.3       1 <0>         0.1856
     24 C17         6.7086   11.1084    3.1630 C.3       1 <0>         0.2081
     25 N4          7.0965   12.5244    2.9935 N.am      1 <0>        -0.5945
     26 C18         6.0317   13.5341    3.0927 C.3       1 <0>         0.1275
     27 C19         5.0288   13.3439    1.9534 C.3       1 <0>        -0.0592
     28 C20         8.3757   12.8766    2.7569 C.2       1 <0>         0.6614
     29 O3          8.6682   14.0482    2.6214 O.2       1 <0>        -0.5615
     30 O4          9.3296   11.9304    2.6707 O.3       1 <0>        -0.3619
     31 C21        10.6853   12.3824    2.4140 C.3       1 <0>         0.1371
     32 C22        11.1333   13.3163    3.5401 C.3       1 <0>        -0.1861
     33 C23        11.6222   11.1745    2.3502 C.3       1 <0>        -0.1438
     34 C24        10.7290   13.1328    1.0814 C.3       1 <0>        -0.1864
     35 H2         -4.0406    1.1829    2.0323 H         1 <0>         0.0687
     36 H3         -4.2168    1.9546    0.4198 H         1 <0>         0.0735
     37 H4         -4.7373    2.8331    1.8976 H         1 <0>         0.0734
     38 H5         -1.8873    1.1302    2.8340 H         1 <0>         0.1282
     39 H6          0.3709    2.0812    3.0507 H         1 <0>         0.1307
     40 H7          0.9211    4.2167    1.9610 H         1 <0>         0.1260
     41 H8         -3.0794    4.4447    0.4322 H         1 <0>         0.1364
     42 H9          1.2862    5.7521    1.1665 H         1 <0>         0.4325
     43 H10         2.0985    6.5997   -1.5459 H         1 <0>         0.0829
     44 H11         0.3577    6.4920   -3.3224 H         1 <0>         0.0559
     45 H12        -0.7871    7.3720   -2.2539 H         1 <0>         0.0676
     46 H13        -0.2196    5.7286   -1.8023 H         1 <0>         0.0590
     47 H14         1.9342    8.4280   -3.2278 H         1 <0>         0.0712
     48 H15         2.4904    9.0565   -1.6396 H         1 <0>         0.0566
     49 H16         0.7893    9.3080   -2.1593 H         1 <0>         0.0654
     50 H17         1.3612   10.1713    0.1082 H         1 <0>         0.4569
     51 H18         6.5581   10.8712    4.2265 H         1 <0>         0.0924
     52 H19         7.4769   10.4420    2.7439 H         1 <0>         0.1076
     53 H20         5.5122   13.4256    4.0562 H         1 <0>         0.0829
     54 H21         6.4724   14.5397    3.0249 H         1 <0>         0.1112
     55 H22         5.4861   13.6571    1.0032 H         1 <0>         0.0886
     56 H23         4.1319   13.9508    2.1462 H         1 <0>         0.1007
     57 H24        12.1604   13.6588    3.3456 H         1 <0>         0.0723
     58 H25        11.1019   12.7768    4.4982 H         1 <0>         0.0606
     59 H26        10.4597   14.1847    3.5860 H         1 <0>         0.0884
     60 H27        12.6493   11.5170    2.1557 H         1 <0>         0.0829
     61 H28        11.3001   10.5030    1.5407 H         1 <0>         0.0673
     62 H29        11.5908   10.6351    3.3084 H         1 <0>         0.0680
     63 H30        11.7561   13.4752    0.8870 H         1 <0>         0.0725
     64 H31        10.0555   14.0013    1.1274 H         1 <0>         0.0882
     65 H32        10.4069   12.4614    0.2718 H         1 <0>         0.0596
@<TRIPOS>BOND
     1    1    2 1
     2    1   35 1
     3    1   36 1
     4    1   37 1
     5    2    7 ar
     6    2    3 ar
     7    3    4 ar
     8    3   38 1
     9    4    5 ar
    10    4   39 1
    11    5    6 ar
    12    5   40 1
    13    6    7 ar
    14    6    8 1
    15    7   41 1
    16    8    9 2
    17    8   10 am
    18   10   11 1
    19   10   42 1
    20   11   12 1
    21   11   13 1
    22   11   16 1
    23   13   14 1
    24   13   15 1
    25   13   43 1
    26   14   44 1
    27   14   45 1
    28   14   46 1
    29   15   47 1
    30   15   48 1
    31   15   49 1
    32   16   17 2
    33   16   18 am
    34   18   19 1
    35   18   50 1
    36   19   23 1
    37   19   20 2
    38   20   21 1
    39   21   27 1
    40   21   22 2
    41   22   23 1
    42   22   24 1
    43   24   25 1
    44   24   51 1
    45   24   52 1
    46   25   26 1
    47   25   28 am
    48   26   27 1
    49   26   53 1
    50   26   54 1
    51   27   55 1
    52   27   56 1
    53   28   29 2
    54   28   30 1
    55   30   31 1
    56   31   32 1
    57   31   33 1
    58   31   34 1
    59   32   57 1
    60   32   58 1
    61   32   59 1
    62   33   60 1
    63   33   61 1
    64   33   62 1
    65   34   63 1
    66   34   64 1
    67   34   65 1
@<TRIPOS>MOLECULE
ZINC38704905
   64    68     0     0     0
SMALL
USER_CHARGES

@<TRIPOS>ATOM
      1 C1          0.3563    1.6968   -1.3305 C.3       1 <0>        -0.1525
      2 C2          0.3257    0.1719   -1.2095 C.3       1 <0>         0.0528
      3 O1         -0.9686   -0.2452   -0.7705 O.3       1 <0>        -0.3027
      4 C3         -1.1655   -1.5813   -0.6108 C.ar      1 <0>         0.1142
      5 C4         -0.1338   -2.4705   -0.8654 C.ar      1 <0>        -0.1699
      6 C5         -0.3354   -3.8284   -0.7021 C.ar      1 <0>        -0.0866
      7 C6         -1.5654   -4.3025   -0.2853 C.ar      1 <0>        -0.0963
      8 C7         -2.5991   -3.4208   -0.0300 C.ar      1 <0>        -0.1578
      9 C8         -2.4018   -2.0581   -0.1858 C.ar      1 <0>         0.1062
     10 O2         -3.4158   -1.1889    0.0708 O.3       1 <0>        -0.3020
     11 C9         -4.6570   -1.7496    0.5035 C.3       1 <0>         0.0243
     12 C10        -1.7800   -5.7837   -0.1094 C.3       1 <0>         0.2557
     13 H1         -2.7105   -5.9664    0.4281 H         1 <0>         0.1035
     14 C11        -1.8143   -6.4647   -1.4502 C.2       1 <0>        -0.1618
     15 C12        -2.4389   -6.5850   -2.6962 C.2       1 <0>         0.1292
     16 N1         -1.7879   -7.5083   -3.3762 N.2       1 <0>        -0.2396
     17 N2         -0.8146   -7.9826   -2.6832 N.pl3     1 <0>        -0.3341
     18 H2         -0.2010   -8.6714   -2.9832 H         1 <0>         0.4531
     19 C13        -0.7723   -7.3720   -1.4621 C.2       1 <0>        -0.0626
     20 C14        -0.0721   -7.2952   -0.1750 C.2       1 <0>         0.6010
     21 O3          0.8937   -7.9681    0.1311 O.2       1 <0>        -0.5123
     22 N3         -0.6505   -6.3749    0.6198 N.am      1 <0>        -0.5919
     23 C15        -0.2266   -6.0228    1.9772 C.3       1 <0>         0.1855
     24 C16        -0.9444   -6.8993    2.9710 C.ar      1 <0>        -0.1705
     25 C17        -2.1661   -6.5085    3.4979 C.ar      1 <0>        -0.0576
     26 C18        -2.7902   -7.3466    4.4089 C.ar      1 <0>        -0.1748
     27 C19        -2.1782   -8.5355    4.7593 C.ar      1 <0>         0.1066
     28 N4         -1.0155   -8.8747    4.2382 N.ar      1 <0>        -0.4845
     29 C20        -0.3962   -8.1052    3.3643 C.ar      1 <0>         0.1251
     30 C21        -3.6176   -5.8154   -3.1661 C.ar      1 <0>        -0.0450
     31 C22        -3.6070   -5.2188   -4.4243 C.ar      1 <0>        -0.0347
     32 C23        -4.7057   -4.5039   -4.8569 C.ar      1 <0>        -0.1296
     33 C24        -5.8187   -4.3777   -4.0446 C.ar      1 <0>        -0.0538
     34 C25        -5.8393   -4.9655   -2.7941 C.ar      1 <0>        -0.1551
     35 C26        -4.7454   -5.6911   -2.3500 C.ar      1 <0>         0.1356
     36 O4         -4.7670   -6.2750   -1.1235 O.3       1 <0>        -0.4861
     37 C27        -7.0135   -3.5953   -4.5255 C.3       1 <0>        -0.1182
     38 C28        -2.3970   -5.3529   -5.3125 C.3       1 <0>        -0.1129
     39 H3          1.3436    2.0150   -1.6654 H         1 <0>         0.0792
     40 H4         -0.3937    2.0191   -2.0528 H         1 <0>         0.0672
     41 H5          0.1408    2.1427   -0.3595 H         1 <0>         0.0673
     42 H6          0.5412   -0.2740   -2.1805 H         1 <0>         0.0620
     43 H7          1.0757   -0.1504   -0.4872 H         1 <0>         0.0623
     44 H8          0.8278   -2.1028   -1.1918 H         1 <0>         0.1370
     45 H9          0.4695   -4.5204   -0.9009 H         1 <0>         0.1222
     46 H10        -3.5591   -3.7937    0.2951 H         1 <0>         0.1322
     47 H11        -5.3778   -0.9496    0.6725 H         1 <0>         0.1026
     48 H12        -5.0372   -2.4253   -0.2627 H         1 <0>         0.0550
     49 H13        -4.5027   -2.3016    1.4306 H         1 <0>         0.0553
     50 H14         0.8490   -6.1715    2.0720 H         1 <0>         0.1039
     51 H15        -0.4676   -4.9781    2.1736 H         1 <0>         0.1011
     52 H16        -2.6205   -5.5733    3.2057 H         1 <0>         0.1339
     53 H17        -3.7423   -7.0739    4.8397 H         1 <0>         0.1375
     54 H18        -2.6578   -9.1939    5.4684 H         1 <0>         0.1572
     55 H19         0.5527   -8.4190    2.9549 H         1 <0>         0.1581
     56 H20        -4.6964   -4.0412   -5.8327 H         1 <0>         0.1292
     57 H21        -6.7107   -4.8634   -2.1642 H         1 <0>         0.1321
     58 H22        -4.4950   -5.6889   -0.4040 H         1 <0>         0.3782
     59 H23        -7.6973   -4.2624   -5.0505 H         1 <0>         0.0752
     60 H24        -7.5242   -3.1505   -3.6714 H         1 <0>         0.0689
     61 H25        -6.6834   -2.8073   -5.2023 H         1 <0>         0.0703
     62 H26        -2.5005   -6.2411   -5.9359 H         1 <0>         0.0787
     63 H27        -2.3129   -4.4711   -5.9477 H         1 <0>         0.0676
     64 H28        -1.5024   -5.4437   -4.6965 H         1 <0>         0.0656
@<TRIPOS>BOND
     1    1    2 1
     2    1   39 1
     3    1   40 1
     4    1   41 1
     5    2    3 1
     6    2   42 1
     7    2   43 1
     8    3    4 1
     9    4    9 ar
    10    4    5 ar
    11    5    6 ar
    12    5   44 1
    13    6    7 ar
    14    6   45 1
    15    7    8 ar
    16    7   12 1
    17    8    9 ar
    18    8   46 1
    19    9   10 1
    20   10   11 1
    21   11   47 1
    22   11   48 1
    23   11   49 1
    24   12   13 1
    25   12   22 1
    26   12   14 1
    27   14   19 2
    28   14   15 1
    29   15   16 2
    30   15   30 1
    31   16   17 1
    32   17   18 1
    33   17   19 1
    34   19   20 1
    35   20   21 2
    36   20   22 am
    37   22   23 1
    38   23   24 1
    39   23   50 1
    40   23   51 1
    41   24   29 ar
    42   24   25 ar
    43   25   26 ar
    44   25   52 1
    45   26   27 ar
    46   26   53 1
    47   27   28 ar
    48   27   54 1
    49   28   29 ar
    50   29   55 1
    51   30   35 ar
    52   30   31 ar
    53   31   32 ar
    54   31   38 1
    55   32   33 ar
    56   32   56 1
    57   33   34 ar
    58   33   37 1
    59   34   35 ar
    60   34   57 1
    61   35   36 1
    62   36   58 1
    63   37   59 1
    64   37   60 1
    65   37   61 1
    66   38   62 1
    67   38   63 1
    68   38   64 1
@<TRIPOS>MOLECULE
ZINC09402837
   48    51     0     0     0
SMALL
USER_CHARGES
2-[[4-amino-5-(3-pyridyl)-1,2,4-triazol-3-yl]sulfanyl]-N-(2-phenylsulfanylphenyl)-acetamide
@<TRIPOS>ATOM
      1 C1         -0.3133   -4.6386   -4.0728 C.ar      1 <0>        -0.1193
      2 C2          0.3673   -5.3931   -3.1344 C.ar      1 <0>        -0.1012
      3 C3         -0.0908   -5.4568   -1.8334 C.ar      1 <0>        -0.0960
      4 C4         -1.2375   -4.7621   -1.4674 C.ar      1 <0>        -0.1119
      5 C5         -1.9222   -4.0100   -2.4144 C.ar      1 <0>        -0.1253
      6 C6         -1.4548   -3.9459   -3.7121 C.ar      1 <0>        -0.1015
      7 S1         -1.8257   -4.8404    0.1917 S.3       1 <0>        -0.0027
      8 C7         -3.1635   -3.6942    0.2242 C.ar      1 <0>        -0.1723
      9 C8         -4.4734   -4.1530    0.2262 C.ar      1 <0>        -0.0448
     10 C9         -5.5208   -3.2518    0.2456 C.ar      1 <0>        -0.1427
     11 C10        -5.2685   -1.8921    0.2688 C.ar      1 <0>        -0.0679
     12 C11        -3.9669   -1.4262    0.2728 C.ar      1 <0>        -0.1393
     13 C12        -2.9094   -2.3227    0.2530 C.ar      1 <0>         0.1945
     14 N1         -1.5895   -1.8526    0.2560 N.am      1 <0>        -0.6592
     15 C13        -1.2986   -0.6646    0.8222 C.2       1 <0>         0.5400
     16 O1         -2.1904    0.0395    1.2467 O.2       1 <0>        -0.4989
     17 C14         0.1346   -0.2110    0.9278 C.3       1 <0>        -0.1634
     18 S2          0.1967    1.4109    1.7288 S.3       1 <0>         0.1275
     19 C15         1.9366    1.6893    1.7217 C.2       1 <0>         0.1748
     20 N2          2.8538    0.8793    1.2419 N.2       1 <0>        -0.2852
     21 N3          4.0215    1.3923    1.3994 N.2       1 <0>        -0.2463
     22 C16         3.9218    2.5607    1.9891 C.2       1 <0>         0.1942
     23 N4          2.5829    2.7895    2.2083 N.pl3     1 <0>        -0.3007
     24 N5          2.0181    3.8871    2.7933 N.3       1 <0>        -0.5857
     25 C17         5.0372    3.4638    2.3444 C.ar      1 <0>        -0.0703
     26 C18         6.3101    3.2735    1.7934 C.ar      1 <0>        -0.0286
     27 C19         7.3195    4.1466    2.1580 C.ar      1 <0>        -0.1601
     28 C20         7.0417    5.1699    3.0467 C.ar      1 <0>         0.1136
     29 N6          5.8322    5.3253    3.5498 N.ar      1 <0>        -0.4709
     30 C21         4.8375    4.5235    3.2299 C.ar      1 <0>         0.1013
     31 H1          0.0472   -4.5906   -5.0897 H         1 <0>         0.1260
     32 H2          1.2583   -5.9327   -3.4196 H         1 <0>         0.1296
     33 H3          0.4412   -6.0461   -1.1012 H         1 <0>         0.1293
     34 H4         -2.8162   -3.4724   -2.1346 H         1 <0>         0.1220
     35 H5         -1.9838   -3.3578   -4.4475 H         1 <0>         0.1252
     36 H6         -4.6741   -5.2140    0.2077 H         1 <0>         0.1381
     37 H7         -6.5396   -3.6103    0.2422 H         1 <0>         0.1327
     38 H8         -6.0908   -1.1922    0.2835 H         1 <0>         0.1341
     39 H9         -3.7739   -0.3637    0.2909 H         1 <0>         0.1581
     40 H10        -0.8851   -2.3821   -0.1493 H         1 <0>         0.4179
     41 H11         0.5678   -0.1403   -0.0699 H         1 <0>         0.1332
     42 H12         0.7007   -0.9304    1.5196 H         1 <0>         0.1348
     43 H13         1.9383    3.7640    3.7916 H         1 <0>         0.3719
     44 H14         2.5387    4.7227    2.5725 H         1 <0>         0.3807
     45 H15         6.4993    2.4658    1.1019 H         1 <0>         0.1523
     46 H16         8.3139    4.0308    1.7528 H         1 <0>         0.1498
     47 H17         7.8278    5.8529    3.3330 H         1 <0>         0.1672
     48 H18         3.8600    4.6854    3.6594 H         1 <0>         0.1454
@<TRIPOS>BOND
     1    1    6 ar
     2    1    2 ar
     3    1   31 1
     4    2    3 ar
     5    2   32 1
     6    3    4 ar
     7    3   33 1
     8    4    5 ar
     9    4    7 1
    10    5    6 ar
    11    5   34 1
    12    6   35 1
    13    7    8 1
    14    8   13 ar
    15    8    9 ar
    16    9   10 ar
    17    9   36 1
    18   10   11 ar
    19   10   37 1
    20   11   12 ar
    21   11   38 1
    22   12   13 ar
    23   12   39 1
    24   13   14 1
    25   14   15 am
    26   14   40 1
    27   15   16 2
    28   15   17 1
    29   17   18 1
    30   17   41 1
    31   17   42 1
    32   18   19 1
    33   19   23 1
    34   19   20 2
    35   20   21 1
    36   21   22 2
    37   22   23 1
    38   22   25 1
    39   23   24 1
    40   24   43 1
    41   24   44 1
    42   25   30 ar
    43   25   26 ar
    44   26   27 ar
    45   26   45 1
    46   27   28 ar
    47   27   46 1
    48   28   29 ar
    49   28   47 1
    50   29   30 ar
    51   30   48 1
@<TRIPOS>MOLECULE
ZINC14157507
   57    59     0     0     0
SMALL
USER_CHARGES
(1E)-3-(2,3-dimethylphenyl)-1-[[(4,6-dimethylpyrimidin-2-yl)amino]-[[(2R)-tetrahydrofuran-2-yl]methylamino]methylene]thiourea
@<TRIPOS>ATOM
      1 C1         -7.9442    2.8728   -4.7901 C.3       1 <0>        -0.1149
      2 C2         -6.7031    3.1207   -3.9719 C.ar      1 <0>        -0.0861
      3 C3         -6.7082    4.0905   -2.9858 C.ar      1 <0>        -0.1096
      4 C4         -5.5715    4.3214   -2.2332 C.ar      1 <0>        -0.1148
      5 C5         -4.4285    3.5798   -2.4603 C.ar      1 <0>        -0.0722
      6 C6         -4.4183    2.6093   -3.4536 C.ar      1 <0>         0.1150
      7 C7         -5.5620    2.3798   -4.2079 C.ar      1 <0>        -0.0895
      8 C8         -5.5573    1.3237   -5.2829 C.3       1 <0>        -0.1209
      9 N1         -3.2611    1.8608   -3.6900 N.pl3     1 <0>        -0.6022
     10 C9         -2.0517    2.4526   -3.6301 C.2       1 <0>         0.5492
     11 S1         -1.9358    4.1354   -3.3374 S.2       1 <0>        -0.6353
     12 N2         -0.9394    1.7235   -3.7997 N.2       1 <0>        -0.5801
     13 C10        -0.0837    1.5815   -2.8022 C.2       1 <0>         0.7074
     14 N3         -0.3868    2.0776   -1.5671 N.pl3     1 <0>        -0.7185
     15 C11         0.5111    1.8276   -0.4368 C.3       1 <0>         0.1011
     16 C12        -0.0566    2.4880    0.8212 C.3       1 <0>         0.0665
     17 H1         -1.0477    2.0877    1.0347 H         1 <0>         0.0777
     18 C13         0.8811    2.2308    2.0167 C.3       1 <0>        -0.1484
     19 C14         1.2735    3.6472    2.5028 C.3       1 <0>        -0.1557
     20 C15         0.1330    4.5188    1.9179 C.3       1 <0>         0.0452
     21 O1         -0.1309    3.9114    0.6349 O.3       1 <0>        -0.3603
     22 N4          1.1063    0.9369   -3.0077 N.pl3     1 <0>        -0.6064
     23 C16         1.4146    0.4323   -4.2640 C.ar      1 <0>         0.5522
     24 N5          0.5436    0.5787   -5.2507 N.ar      1 <0>        -0.4885
     25 C17         0.8083    0.1148   -6.4608 C.ar      1 <0>         0.2075
     26 C18         2.0089   -0.5405   -6.6858 C.ar      1 <0>        -0.2580
     27 C19         2.8949   -0.6809   -5.6292 C.ar      1 <0>         0.2092
     28 N6          2.5702   -0.1885   -4.4452 N.ar      1 <0>        -0.5540
     29 C20         4.2118   -1.3864   -5.8267 C.3       1 <0>        -0.1069
     30 C21        -0.1856    0.2915   -7.5797 C.3       1 <0>        -0.1056
     31 H2         -8.5556    2.1139   -4.3019 H         1 <0>         0.0697
     32 H3         -8.5136    3.7982   -4.8759 H         1 <0>         0.0671
     33 H4         -7.6609    2.5269   -5.7842 H         1 <0>         0.0687
     34 H5         -7.6018    4.6689   -2.8034 H         1 <0>         0.1231
     35 H6         -5.5788    5.0791   -1.4637 H         1 <0>         0.1265
     36 H7         -3.5423    3.7576   -1.8692 H         1 <0>         0.1445
     37 H8         -5.8680    0.3699   -4.8566 H         1 <0>         0.0709
     38 H9         -6.2483    1.6094   -6.0760 H         1 <0>         0.0778
     39 H10        -4.5522    1.2279   -5.6937 H         1 <0>         0.0616
     40 H11        -3.3287    0.9155   -3.8972 H         1 <0>         0.4080
     41 H12        -1.1967    2.5956   -1.4378 H         1 <0>         0.4302
     42 H13         0.6005    0.7535   -0.2744 H         1 <0>         0.0854
     43 H14         1.4941    2.2453   -0.6543 H         1 <0>         0.0819
     44 H15         0.3563    1.6891    2.8036 H         1 <0>         0.0832
     45 H16         1.7649    1.6789    1.6965 H         1 <0>         0.0831
     46 H17         1.2813    3.6965    3.5917 H         1 <0>         0.0838
     47 H18         2.2395    3.9448    2.0949 H         1 <0>         0.0799
     48 H19        -0.7509    4.4716    2.5540 H         1 <0>         0.0633
     49 H20         0.4623    5.5507    1.7963 H         1 <0>         0.0969
     50 H21         1.7342    0.8326   -2.2757 H         1 <0>         0.4350
     51 H22         2.2485   -0.9333   -7.6629 H         1 <0>         0.1489
     52 H23         4.0882   -2.4502   -5.6236 H         1 <0>         0.0876
     53 H24         4.5469   -1.2493   -6.8548 H         1 <0>         0.0845
     54 H25         4.9530   -0.9700   -5.1445 H         1 <0>         0.0836
     55 H26        -0.8662   -0.5598   -7.5990 H         1 <0>         0.0854
     56 H27        -0.7541    1.2076   -7.4194 H         1 <0>         0.0844
     57 H28         0.3445    0.3544   -8.5300 H         1 <0>         0.0820
@<TRIPOS>BOND
     1    1    2 1
     2    1   31 1
     3    1   32 1
     4    1   33 1
     5    2    7 ar
     6    2    3 ar
     7    3    4 ar
     8    3   34 1
     9    4    5 ar
    10    4   35 1
    11    5    6 ar
    12    5   36 1
    13    6    7 ar
    14    6    9 1
    15    7    8 1
    16    8   37 1
    17    8   38 1
    18    8   39 1
    19    9   10 1
    20    9   40 1
    21   10   11 2
    22   10   12 1
    23   12   13 2
    24   13   14 1
    25   13   22 1
    26   14   15 1
    27   14   41 1
    28   15   16 1
    29   15   42 1
    30   15   43 1
    31   16   17 1
    32   16   21 1
    33   16   18 1
    34   18   19 1
    35   18   44 1
    36   18   45 1
    37   19   20 1
    38   19   46 1
    39   19   47 1
    40   20   21 1
    41   20   48 1
    42   20   49 1
    43   22   23 1
    44   22   50 1
    45   23   28 ar
    46   23   24 ar
    47   24   25 ar
    48   25   26 ar
    49   25   30 1
    50   26   27 ar
    51   26   51 1
    52   27   28 ar
    53   27   29 1
    54   29   52 1
    55   29   53 1
    56   29   54 1
    57   30   55 1
    58   30   56 1
    59   30   57 1
@<TRIPOS>MOLECULE
ZINC22065326
   56    58     0     0     0
SMALL
USER_CHARGES
N-[(1S)-1-(4-methoxyphenyl)-2-methyl-propyl]-2-(5-sulfamoylindolin-1-yl)acetamide
@<TRIPOS>ATOM
      1 C1          3.2341    4.1586    6.7299 C.3       1 <0>        -0.1487
      2 C2          3.4606    4.5761    5.2755 C.3       1 <0>        -0.0970
      3 C3          4.0629    3.4050    4.4966 C.3       1 <0>        -0.1400
      4 C4          2.1246    4.9746    4.6453 C.3       1 <0>         0.2011
      5 H1          1.4215    4.1287    4.6418 H         1 <0>         0.0958
      6 C5          1.5315    6.1281    5.4125 C.ar      1 <0>        -0.1261
      7 C6          1.9880    7.4138    5.1881 C.ar      1 <0>        -0.0747
      8 C7          1.4419    8.4736    5.8860 C.ar      1 <0>        -0.2039
      9 C8          0.4429    8.2456    6.8212 C.ar      1 <0>         0.1303
     10 C9         -0.0095    6.9539    7.0486 C.ar      1 <0>        -0.1465
     11 C10         0.5356    5.8983    6.3436 C.ar      1 <0>        -0.0651
     12 O1         -0.0914    9.2857    7.5137 O.3       1 <0>        -0.3164
     13 C11         0.4229   10.5879    7.2277 C.3       1 <0>         0.0230
     14 N1          2.3416    5.3744    3.2527 N.am      1 <0>        -0.7357
     15 C12         2.3743    4.4411    2.2809 C.2       1 <0>         0.5163
     16 O2          2.2241    3.2703    2.5593 O.2       1 <0>        -0.5162
     17 C13         2.5975    4.8524    0.8484 C.3       1 <0>         0.0240
     18 N2          2.4450    3.6822   -0.0265 N.pl3     1 <0>        -0.4566
     19 C14         1.1177    3.0549    0.1539 C.3       1 <0>         0.0456
     20 C15         0.8275    2.4695   -1.2473 C.3       1 <0>        -0.0851
     21 C16         1.6540    3.3535   -2.1598 C.ar      1 <0>        -0.1542
     22 C17         2.5699    4.0432   -1.3738 C.ar      1 <0>         0.1550
     23 C18         3.4443    4.9415   -1.9824 C.ar      1 <0>        -0.1611
     24 C19         3.4009    5.1352   -3.3476 C.ar      1 <0>         0.0029
     25 C20         2.4939    4.4357   -4.1221 C.ar      1 <0>        -0.6879
     26 C21         1.6167    3.5486   -3.5242 C.ar      1 <0>         0.0283
     27 S1          2.4506    4.6791   -5.8666 S.o2      1 <0>         2.6395
     28 O3          3.7367    5.1520   -6.2428 O.2       1 <0>        -0.9875
     29 O4          1.8766    3.5059   -6.4263 O.2       1 <0>        -0.9533
     30 N3          1.3872    5.9137   -6.1625 N.pl3     1 <0>        -1.1637
     31 H2          2.8011    5.0006    7.2899 H         1 <0>         0.0590
     32 H3          4.1947    3.8722    7.1830 H         1 <0>         0.0581
     33 H4          2.5437    3.3028    6.7624 H         1 <0>         0.0572
     34 H5          4.1510    5.4318    5.2429 H         1 <0>         0.0704
     35 H6          4.2257    3.7052    3.4510 H         1 <0>         0.0525
     36 H7          3.3725    2.5493    4.5292 H         1 <0>         0.0641
     37 H8          5.0235    3.1186    4.9497 H         1 <0>         0.0477
     38 H9          2.7694    7.5901    4.4636 H         1 <0>         0.1229
     39 H10         1.7955    9.4782    5.7069 H         1 <0>         0.1299
     40 H11        -0.7869    6.7738    7.7763 H         1 <0>         0.1335
     41 H12         0.1837    4.8926    6.5203 H         1 <0>         0.1313
     42 H13        -0.0929   11.3313    7.8532 H         1 <0>         0.1037
     43 H14         0.2563   10.8229    6.1661 H         1 <0>         0.0572
     44 H15         1.5012   10.6118    7.4437 H         1 <0>         0.0575
     45 H16         2.4778    6.4363    3.0002 H         1 <0>         0.4169
     46 H17         1.8599    5.6187    0.5678 H         1 <0>         0.0791
     47 H18         3.6122    5.2626    0.7385 H         1 <0>         0.1147
     48 H19         1.1805    2.2818    0.9338 H         1 <0>         0.1189
     49 H20         0.3879    3.8209    0.4549 H         1 <0>         0.0581
     50 H21         1.1434    1.4163   -1.2772 H         1 <0>         0.0954
     51 H22        -0.2505    2.5350   -1.4560 H         1 <0>         0.0889
     52 H23         4.1579    5.4879   -1.3835 H         1 <0>         0.1325
     53 H24         4.0813    5.8324   -3.8138 H         1 <0>         0.1448
     54 H25         0.9048    3.0049   -4.1275 H         1 <0>         0.1430
     55 H26         1.3312    6.0977   -7.2456 H         1 <0>         0.4131
     56 H27         1.7328    6.8253   -5.6531 H         1 <0>         0.4079
@<TRIPOS>BOND
     1    1    2 1
     2    1   31 1
     3    1   32 1
     4    1   33 1
     5    2    3 1
     6    2    4 1
     7    2   34 1
     8    3   35 1
     9    3   36 1
    10    3   37 1
    11    4    5 1
    12    4    6 1
    13    4   14 1
    14    6   11 ar
    15    6    7 ar
    16    7    8 ar
    17    7   38 1
    18    8    9 ar
    19    8   39 1
    20    9   10 ar
    21    9   12 1
    22   10   11 ar
    23   10   40 1
    24   11   41 1
    25   12   13 1
    26   13   42 1
    27   13   43 1
    28   13   44 1
    29   14   15 am
    30   14   45 1
    31   15   16 2
    32   15   17 1
    33   17   18 1
    34   17   46 1
    35   17   47 1
    36   18   22 1
    37   18   19 1
    38   19   20 1
    39   19   48 1
    40   19   49 1
    41   20   21 1
    42   20   50 1
    43   20   51 1
    44   21   26 ar
    45   21   22 ar
    46   22   23 ar
    47   23   24 ar
    48   23   52 1
    49   24   25 ar
    50   24   53 1
    51   25   26 ar
    52   25   27 1
    53   26   54 1
    54   27   28 2
    55   27   29 2
    56   27   30 1
    57   30   55 1
    58   30   56 1
@<TRIPOS>MOLECULE
ZINC36812241
   50    53     0     0     0
SMALL
USER_CHARGES

@<TRIPOS>ATOM
      1 C1          0.1438    1.2008    0.2543 C.3       1 <0>        -0.1452
      2 C2          0.0702   -0.3271    0.2221 C.3       1 <0>        -0.1214
      3 H1          0.5597   -0.6955   -0.6795 H         1 <0>         0.1275
      4 C3          0.7643   -0.8891    1.4359 C.2       1 <0>         0.5417
      5 O1          0.1135   -1.2525    2.3926 O.2       1 <0>        -0.4967
      6 N1          2.1083   -0.9879    1.4583 N.am      1 <0>        -0.6646
      7 C4          2.7554   -1.4343    2.6100 C.ar      1 <0>         0.1713
      8 C5          2.1671   -2.4167    3.4002 C.ar      1 <0>        -0.1277
      9 C6          2.8033   -2.8597    4.5378 C.ar      1 <0>        -0.0368
     10 C7          4.0417   -2.3218    4.8983 C.ar      1 <0>        -0.1544
     11 C8          4.6301   -1.3355    4.1021 C.ar      1 <0>        -0.0651
     12 C9          3.9907   -0.9004    2.9631 C.ar      1 <0>        -0.1498
     13 C10         4.7265   -2.7940    6.1176 C.2       1 <0>         0.5642
     14 O2          4.2132   -3.6519    6.8096 O.2       1 <0>        -0.5386
     15 N2          5.9208   -2.2742    6.4639 N.am      1 <0>        -0.8516
     16 S1         -1.6671   -0.8489    0.2232 S.3       1 <0>         0.0892
     17 C11        -2.2941   -0.2465   -1.3094 C.2       1 <0>         0.1504
     18 N3         -1.6196    0.4189   -2.2200 N.2       1 <0>        -0.2865
     19 N4         -2.3828    0.7042   -3.2137 N.2       1 <0>        -0.2540
     20 C12        -3.5913    0.2388   -2.9989 C.2       1 <0>         0.2301
     21 N5         -3.5703   -0.3893   -1.7750 N.pl3     1 <0>        -0.4278
     22 C13        -4.6850   -1.0673   -1.1087 C.3       1 <0>         0.0337
     23 C14        -5.6572   -0.2035   -0.3028 C.3       1 <0>        -0.1666
     24 C15        -4.6678   -1.1196    0.4203 C.3       1 <0>        -0.1626
     25 C16        -4.7538    0.3618   -3.9035 C.ar      1 <0>        -0.0565
     26 C17        -6.0126   -0.0780   -3.4912 C.ar      1 <0>        -0.0857
     27 C18        -7.0936    0.0395   -4.3400 C.ar      1 <0>        -0.1287
     28 C19        -6.9334    0.5920   -5.5987 C.ar      1 <0>        -0.0730
     29 C20        -5.6897    1.0300   -6.0157 C.ar      1 <0>        -0.1541
     30 C21        -4.5988    0.9243   -5.1735 C.ar      1 <0>         0.1441
     31 F1         -3.3852    1.3578   -5.5789 F         1 <0>        -0.1135
     32 H2          1.1877    1.5144    0.2537 H         1 <0>         0.0743
     33 H3         -0.3582    1.6074   -0.6236 H         1 <0>         0.0899
     34 H4         -0.3456    1.5692    1.1559 H         1 <0>         0.0737
     35 H5          2.6253   -0.7485    0.6733 H         1 <0>         0.4176
     36 H6          1.2100   -2.8320    3.1210 H         1 <0>         0.1467
     37 H7          2.3458   -3.6218    5.1512 H         1 <0>         0.1421
     38 H8          5.5869   -0.9175    4.3781 H         1 <0>         0.1323
     39 H9          4.4466   -0.1409    2.3453 H         1 <0>         0.1353
     40 H10         6.3303   -1.5898    5.9118 H         1 <0>         0.4005
     41 H11         6.3709   -2.5845    7.2652 H         1 <0>         0.4064
     42 H12        -5.0952   -1.9279   -1.6371 H         1 <0>         0.1498
     43 H13        -5.4674    0.8693   -0.2682 H         1 <0>         0.1078
     44 H14        -6.7073   -0.4957   -0.3009 H         1 <0>         0.1223
     45 H15        -5.0670   -2.0144    0.8978 H         1 <0>         0.1254
     46 H16        -3.8271   -0.6495    0.9305 H         1 <0>         0.1199
     47 H17        -6.1401   -0.5099   -2.5095 H         1 <0>         0.1420
     48 H18        -8.0678   -0.3010   -4.0215 H         1 <0>         0.1377
     49 H19        -7.7837    0.6813   -6.2586 H         1 <0>         0.1397
     50 H20        -5.5716    1.4600   -6.9994 H         1 <0>         0.1452
@<TRIPOS>BOND
     1    1    2 1
     2    1   32 1
     3    1   33 1
     4    1   34 1
     5    2    3 1
     6    2    4 1
     7    2   16 1
     8    4    5 2
     9    4    6 am
    10    6    7 1
    11    6   35 1
    12    7   12 ar
    13    7    8 ar
    14    8    9 ar
    15    8   36 1
    16    9   10 ar
    17    9   37 1
    18   10   11 ar
    19   10   13 1
    20   11   12 ar
    21   11   38 1
    22   12   39 1
    23   13   14 2
    24   13   15 am
    25   15   40 1
    26   15   41 1
    27   16   17 1
    28   17   21 1
    29   17   18 2
    30   18   19 1
    31   19   20 2
    32   20   21 1
    33   20   25 1
    34   21   22 1
    35   22   24 1
    36   22   23 1
    37   22   42 1
    38   23   24 1
    39   23   43 1
    40   23   44 1
    41   24   45 1
    42   24   46 1
    43   25   30 ar
    44   25   26 ar
    45   26   27 ar
    46   26   47 1
    47   27   28 ar
    48   27   48 1
    49   28   29 ar
    50   28   49 1
    51   29   30 ar
    52   29   50 1
    53   30   31 1
@<TRIPOS>MOLECULE
ZINC09446273
   52    55     0     0     0
SMALL
USER_CHARGES

@<TRIPOS>ATOM
      1 C1          0.1366    1.3942   -0.2696 C.3       1 <0>        -0.1237
      2 C2          0.1364   -0.1118   -0.2144 C.ar      1 <0>        -0.0486
      3 C3          0.9441   -0.8322   -1.0744 C.ar      1 <0>        -0.1354
      4 C4          0.9470   -2.2166   -1.0278 C.ar      1 <0>         0.1464
      5 C5          0.1313   -2.8824   -0.1083 C.ar      1 <0>        -0.0301
      6 C6         -0.6784   -2.1485    0.7542 C.ar      1 <0>        -0.0667
      7 C7         -0.6684   -0.7678    0.7012 C.ar      1 <0>        -0.0469
      8 Cl1        -1.6735    0.1469    1.7814 Cl        1 <0>        -0.0592
      9 C8          0.1282   -4.3654   -0.0522 C.2       1 <0>         0.1123
     10 C9          0.2009   -5.1506    1.1035 C.2       1 <0>        -0.1669
     11 C10         0.1662   -6.4622    0.6704 C.2       1 <0>        -0.0632
     12 N1          0.0764   -6.4099   -0.6916 N.pl3     1 <0>        -0.3328
     13 H1          0.0336   -7.1821   -1.2771 H         1 <0>         0.4541
     14 N2          0.0505   -5.1854   -1.0818 N.2       1 <0>        -0.2195
     15 C11         0.2389   -7.3424    1.8419 C.2       1 <0>         0.5983
     16 O1          0.2306   -8.5579    1.7987 O.2       1 <0>        -0.5151
     17 N3          0.3165   -6.6147    2.9706 N.am      1 <0>        -0.5946
     18 C12         0.2995   -5.1926    2.6038 C.3       1 <0>         0.2543
     19 H2         -0.5645   -4.7006    3.0505 H         1 <0>         0.1106
     20 C13         1.5710   -4.5240    3.0590 C.ar      1 <0>        -0.1364
     21 C14         2.7916   -5.1292    2.8234 C.ar      1 <0>        -0.0495
     22 C15         3.9586   -4.5185    3.2400 C.ar      1 <0>        -0.1504
     23 C16         3.9051   -3.2967    3.8950 C.ar      1 <0>         0.1395
     24 C17         2.6791   -2.6913    4.1299 C.ar      1 <0>        -0.2063
     25 C18         1.5154   -3.3036    3.7066 C.ar      1 <0>        -0.0565
     26 O2          5.0517   -2.6941    4.3063 O.3       1 <0>        -0.3158
     27 C19         4.9207   -1.4376    4.9742 C.3       1 <0>         0.0261
     28 C20         0.4030   -7.1489    4.3320 C.3       1 <0>         0.1446
     29 C21         1.8726   -7.3414    4.7118 C.3       1 <0>        -0.1483
     30 C22         1.9630   -7.8994    6.1336 C.3       1 <0>         0.0801
     31 O3          3.3355   -8.0792    6.4884 O.3       1 <0>        -0.5720
     32 O4          1.7401   -2.9253   -1.8735 O.3       1 <0>        -0.4824
     33 H3          0.8993    1.7824    0.4054 H         1 <0>         0.0797
     34 H4          0.3519    1.7204   -1.2871 H         1 <0>         0.0746
     35 H5         -0.8412    1.7690    0.0330 H         1 <0>         0.0775
     36 H6          1.5732   -0.3150   -1.7837 H         1 <0>         0.1424
     37 H7         -1.3108   -2.6576    1.4663 H         1 <0>         0.1388
     38 H8          2.8327   -6.0803    2.3134 H         1 <0>         0.1217
     39 H9          4.9117   -4.9920    3.0563 H         1 <0>         0.1318
     40 H10         2.6349   -1.7402    4.6396 H         1 <0>         0.1311
     41 H11         0.5610   -2.8306    3.8853 H         1 <0>         0.1280
     42 H12         4.4357   -0.7221    4.3103 H         1 <0>         0.0568
     43 H13         4.3181   -1.5652    5.8735 H         1 <0>         0.0570
     44 H14         5.9085   -1.0672    5.2484 H         1 <0>         0.1016
     45 H15        -0.0633   -6.4504    5.0267 H         1 <0>         0.0908
     46 H16        -0.1132   -8.1077    4.3795 H         1 <0>         0.0928
     47 H17         2.3389   -8.0400    4.0171 H         1 <0>         0.0751
     48 H18         2.3888   -6.3826    4.6643 H         1 <0>         0.0853
     49 H19         1.4966   -7.2008    6.8283 H         1 <0>         0.0472
     50 H20         1.4468   -8.8582    6.1811 H         1 <0>         0.0479
     51 H21         3.4686   -8.4311    7.3792 H         1 <0>         0.3820
     52 H22         2.6227   -3.1090   -1.5239 H         1 <0>         0.3920
@<TRIPOS>BOND
     1    1    2 1
     2    1   33 1
     3    1   34 1
     4    1   35 1
     5    2    7 ar
     6    2    3 ar
     7    3    4 ar
     8    3   36 1
     9    4    5 ar
    10    4   32 1
    11    5    6 ar
    12    5    9 1
    13    6    7 ar
    14    6   37 1
    15    7    8 1
    16    9   14 2
    17    9   10 1
    18   10   18 1
    19   10   11 2
    20   11   12 1
    21   11   15 1
    22   12   13 1
    23   12   14 1
    24   15   16 2
    25   15   17 am
    26   17   18 1
    27   17   28 1
    28   18   19 1
    29   18   20 1
    30   20   25 ar
    31   20   21 ar
    32   21   22 ar
    33   21   38 1
    34   22   23 ar
    35   22   39 1
    36   23   24 ar
    37   23   26 1
    38   24   25 ar
    39   24   40 1
    40   25   41 1
    41   26   27 1
    42   27   42 1
    43   27   43 1
    44   27   44 1
    45   28   29 1
    46   28   45 1
    47   28   46 1
    48   29   30 1
    49   29   47 1
    50   29   48 1
    51   30   31 1
    52   30   49 1
    53   30   50 1
    54   31   51 1
    55   32   52 1
@<TRIPOS>MOLECULE
ZINC02658010
   37    39     0     0     0
SMALL
USER_CHARGES
N-(3-carbamoyl-4,5,6,7-tetrahydrobenzothiophen-2-yl)-6-hydroxy-pyridine-3-carboxamide
@<TRIPOS>ATOM
      1 C1          1.6095    6.9348    0.0172 C.2       1 <0>         0.0303
      2 C2          2.3096    8.1239    0.0109 C.2       1 <0>        -0.2042
      3 C3          3.7005    8.0942   -0.0026 C.2       1 <0>         0.4489
      4 N1          4.3573    6.9442   -0.0041 N.am      1 <0>        -0.5302
      5 C4          3.7300    5.7870    0.0020 C.2       1 <0>         0.1825
      6 C5          2.3351    5.7345    0.0097 C.2       1 <0>        -0.2331
      7 C6          1.6345    4.4358    0.0099 C.2       1 <0>         0.5735
      8 O1          0.4192    4.4006    0.0217 O.2       1 <0>        -0.4875
      9 N2          2.3417    3.2886   -0.0031 N.am      1 <0>        -0.6197
     10 C7          1.6839    2.0692   -0.0029 C.2       1 <0>         0.0678
     11 C8          2.2315    0.7938   -0.0149 C.2       1 <0>        -0.2241
     12 C9          1.3124   -0.3316   -0.0120 C.2       1 <0>        -0.0670
     13 C10         0.0021   -0.0041    0.0020 C.2       1 <0>        -0.2046
     14 S1         -0.0219    1.7661    0.0118 S.3       1 <0>         0.2379
     15 C11        -1.1638   -0.9440    0.0069 C.3       1 <0>        -0.0368
     16 C12        -0.6605   -2.3411   -0.3840 C.3       1 <0>        -0.1159
     17 C13         0.5900   -2.6632    0.4392 C.3       1 <0>        -0.1189
     18 C14         1.7569   -1.7890   -0.0237 C.3       1 <0>        -0.0608
     19 C15         3.6832    0.5898   -0.0306 C.2       1 <0>         0.5830
     20 O2          4.2753    0.5109   -1.0910 O.2       1 <0>        -0.5317
     21 N3          4.3621    0.4895    1.1294 N.am      1 <0>        -0.8487
     22 O3          4.3932    9.2588   -0.0093 O.2       1 <0>        -0.6006
     23 H1          0.5296    6.9287    0.0278 H         1 <0>         0.1607
     24 H2          1.7837    9.0672    0.0164 H         1 <0>         0.1654
     25 H3          4.2998    4.8696    0.0010 H         1 <0>         0.1748
     26 H4          3.3113    3.3166   -0.0125 H         1 <0>         0.4140
     27 H5         -1.6040   -0.9779    1.0035 H         1 <0>         0.0839
     28 H6         -1.9100   -0.6072   -0.7127 H         1 <0>         0.0823
     29 H7         -1.4348   -3.0797   -0.1765 H         1 <0>         0.0749
     30 H8         -0.4154   -2.3572   -1.4460 H         1 <0>         0.0690
     31 H9          0.3892   -2.4707    1.4931 H         1 <0>         0.0673
     32 H10         0.8507   -3.7132    0.3061 H         1 <0>         0.0707
     33 H11         2.6016   -1.9189    0.6528 H         1 <0>         0.0718
     34 H12         2.0501   -2.0757   -1.0336 H         1 <0>         0.0796
     35 H13         3.8903    0.5524    1.9746 H         1 <0>         0.4043
     36 H14         5.3227    0.3546    1.1191 H         1 <0>         0.4037
     37 H15         5.3572    6.9553   -0.0100 H         1 <0>         0.4376
@<TRIPOS>BOND
     1    1   23 1
     2    1    2 2
     3    1    6 1
     4    2   24 1
     5    2    3 1
     6    3    4 am
     7    3   22 2
     8    4   37 1
     9    4    5 1
    10    5   25 1
    11    5    6 2
    12    6    7 1
    13    7    8 2
    14    7    9 am
    15    9   10 1
    16    9   26 1
    17   10   14 1
    18   10   11 2
    19   11   12 1
    20   11   19 1
    21   12   18 1
    22   12   13 2
    23   13   14 1
    24   13   15 1
    25   15   16 1
    26   15   27 1
    27   15   28 1
    28   16   17 1
    29   16   29 1
    30   16   30 1
    31   17   18 1
    32   17   31 1
    33   17   32 1
    34   18   33 1
    35   18   34 1
    36   19   20 2
    37   19   21 am
    38   21   35 1
    39   21   36 1
@<TRIPOS>MOLECULE
ZINC20338492
   42    44     0     0     0
SMALL
USER_CHARGES
(2E)-6-amino-2-benzylidene-4-[(2S)-2,3-dihydroxypropyl]-1,4-benzoxazin-3-one
@<TRIPOS>ATOM
      1 C1          0.9202    5.9104   -1.9404 C.ar      1 <0>        -0.1086
      2 C2          0.7878    6.1727   -3.2929 C.ar      1 <0>        -0.1307
      3 C3          0.3117    5.1983   -4.1445 C.ar      1 <0>        -0.0944
      4 C4         -0.0377    3.9423   -3.6381 C.ar      1 <0>        -0.0688
      5 C5          0.0940    3.6869   -2.2695 C.ar      1 <0>        -0.0578
      6 C6          0.5770    4.6699   -1.4318 C.ar      1 <0>        -0.1180
      7 C7         -0.5471    2.8970   -4.5399 C.2       1 <0>        -0.0530
      8 C8         -0.2052    1.6050   -4.3381 C.2       1 <0>        -0.0061
      9 C9          0.8252    1.2248   -3.3484 C.2       1 <0>         0.5438
     10 O1          1.7026    2.0013   -3.0205 O.2       1 <0>        -0.4617
     11 N1          0.7553   -0.0208   -2.8200 N.am      1 <0>        -0.5442
     12 C10        -0.2816   -0.8702   -3.2271 C.ar      1 <0>         0.1587
     13 C11        -0.5475   -2.0294   -2.5116 C.ar      1 <0>        -0.2203
     14 C12        -1.5787   -2.8675   -2.9122 C.ar      1 <0>         0.2444
     15 C13        -2.3470   -2.5438   -4.0235 C.ar      1 <0>        -0.1979
     16 C14        -2.0860   -1.3873   -4.7339 C.ar      1 <0>        -0.0465
     17 C15        -1.0572   -0.5485   -4.3386 C.ar      1 <0>         0.0040
     18 O2         -0.7977    0.5915   -5.0401 O.3       1 <0>        -0.2370
     19 N2         -1.8445   -4.0396   -2.1965 N.pl3     1 <0>        -0.8949
     20 C16         1.7502   -0.4735   -1.8446 C.3       1 <0>         0.1174
     21 C17         1.2729   -0.1298   -0.4322 C.3       1 <0>         0.1037
     22 H1          0.2851   -0.5683   -0.2273 H         1 <0>         0.0605
     23 C18         2.3119   -0.6026    0.5865 C.3       1 <0>         0.0566
     24 O3          1.8148   -0.3873    1.9088 O.3       1 <0>        -0.6027
     25 O4          1.1029    1.2844   -0.3178 O.3       1 <0>        -0.5774
     26 H2          1.2937    6.6778   -1.2785 H         1 <0>         0.1198
     27 H3          1.0584    7.1430   -3.6824 H         1 <0>         0.1224
     28 H4          0.2086    5.4045   -5.1996 H         1 <0>         0.1237
     29 H5         -0.1777    2.7208   -1.8704 H         1 <0>         0.1202
     30 H6          0.6834    4.4728   -0.3753 H         1 <0>         0.1205
     31 H7         -1.2061    3.1670   -5.3782 H         1 <0>         0.1518
     32 H8          0.0492   -2.2810   -1.6473 H         1 <0>         0.1284
     33 H9         -3.1493   -3.1972   -4.3331 H         1 <0>         0.1322
     34 H10        -2.6843   -1.1377   -5.5977 H         1 <0>         0.1402
     35 H11        -2.6617   -4.7042   -2.5135 H         1 <0>         0.4210
     36 H12        -1.2364   -4.2967   -1.3167 H         1 <0>         0.4172
     37 H13         1.8811   -1.5621   -1.9326 H         1 <0>         0.1022
     38 H14         2.7096    0.0281   -2.0396 H         1 <0>         0.1030
     39 H15         2.5087   -1.6747    0.4388 H         1 <0>         0.0480
     40 H16         3.2447   -0.0362    0.4487 H         1 <0>         0.0552
     41 H17         2.4268   -0.6674    2.7788 H         1 <0>         0.4158
     42 H18         0.7623    1.7224    0.6320 H         1 <0>         0.4091
@<TRIPOS>BOND
     1    1    6 ar
     2    1    2 ar
     3    1   26 1
     4    2    3 ar
     5    2   27 1
     6    3    4 ar
     7    3   28 1
     8    4    5 ar
     9    4    7 1
    10    5    6 ar
    11    5   29 1
    12    6   30 1
    13    7    8 2
    14    7   31 1
    15    8   18 1
    16    8    9 1
    17    9   10 2
    18    9   11 am
    19   11   12 1
    20   11   20 1
    21   12   17 ar
    22   12   13 ar
    23   13   14 ar
    24   13   32 1
    25   14   15 ar
    26   14   19 1
    27   15   16 ar
    28   15   33 1
    29   16   17 ar
    30   16   34 1
    31   17   18 1
    32   19   35 1
    33   19   36 1
    34   20   21 1
    35   20   37 1
    36   20   38 1
    37   21   22 1
    38   21   23 1
    39   21   25 1
    40   23   24 1
    41   23   39 1
    42   23   40 1
    43   24   41 1
    44   25   42 1
@<TRIPOS>MOLECULE
ZINC43424779
   42    44     0     0     0
SMALL
USER_CHARGES

@<TRIPOS>ATOM
      1 C1         -0.0168    1.3833   -0.0037 C.ar      1 <0>        -0.2260
      2 C2          1.1774    2.0905   -0.0113 C.ar      1 <0>         0.2463
      3 C3          2.3875    1.4075   -0.0131 C.ar      1 <0>        -0.1586
      4 C4          2.4027    0.0259   -0.0073 C.ar      1 <0>        -0.5765
      5 C5          1.2160   -0.6810   -0.0003 C.ar      1 <0>        -0.1543
      6 C6          0.0021   -0.0041    0.0020 C.ar      1 <0>         0.2507
      7 N1         -1.1974   -0.7196    0.0101 N.pl3     1 <0>        -0.6261
      8 C7         -1.2102   -2.1870   -0.1013 C.3       1 <0>         0.0800
      9 C8         -2.0704   -2.7565    1.0319 C.3       1 <0>         0.0468
     10 O1         -3.3435   -2.1042    1.0362 O.3       1 <0>        -0.3683
     11 C9         -3.2730   -0.6980    1.2698 C.3       1 <0>         0.0844
     12 H1         -2.7483   -0.5200    2.2085 H         1 <0>         0.0584
     13 C10        -2.4963   -0.0318    0.1367 C.3       1 <0>         0.1245
     14 H2         -2.3425    1.0242    0.3587 H         1 <0>         0.0987
     15 C11        -3.2624   -0.2064   -1.1772 C.3       1 <0>        -0.1260
     16 C12        -4.6547    0.4128   -1.0506 C.3       1 <0>        -0.1179
     17 C13        -5.4225   -0.2941    0.0690 C.3       1 <0>        -0.1195
     18 C14        -4.6737   -0.1018    1.3629 C.3       1 <0>        -0.1098
     19 S1          3.9394   -0.8363   -0.0096 S.o2      1 <0>         2.7002
     20 O2          3.6822   -2.1234   -0.5541 O.2       1 <0>        -0.9628
     21 O3          4.9008    0.0488   -0.5679 O.2       1 <0>        -0.9603
     22 N2          4.3725   -1.0692    1.5717 N.pl3     1 <0>        -1.2476
     23 N3          1.1628    3.4871   -0.0175 N.pl3     1 <0>        -0.8732
     24 H3         -0.9587    1.9118    0.0022 H         1 <0>         0.1273
     25 H4          3.3171    1.9572   -0.0193 H         1 <0>         0.1369
     26 H5          1.2314   -1.7609    0.0038 H         1 <0>         0.1381
     27 H6         -1.6332   -2.4772   -1.0630 H         1 <0>         0.0753
     28 H7         -0.1930   -2.5692   -0.0159 H         1 <0>         0.0964
     29 H8         -2.2108   -3.8266    0.8791 H         1 <0>         0.1076
     30 H9         -1.5722   -2.5878    1.9865 H         1 <0>         0.0559
     31 H10        -2.7182    0.2871   -1.9824 H         1 <0>         0.0643
     32 H11        -3.3573   -1.2686   -1.4030 H         1 <0>         0.0734
     33 H12        -4.5614    1.4729   -0.8148 H         1 <0>         0.0616
     34 H13        -5.1924    0.2947   -1.9913 H         1 <0>         0.0671
     35 H14        -6.4199    0.1370    0.1552 H         1 <0>         0.0661
     36 H15        -5.5026   -1.3569   -0.1591 H         1 <0>         0.0729
     37 H16        -5.2274   -0.6007    2.1584 H         1 <0>         0.0740
     38 H17        -4.6001    0.9623    1.5875 H         1 <0>         0.0782
     39 H18         4.8991   -1.8446    1.8211 H         1 <0>         0.4214
     40 H19         4.0996   -0.4302    2.2485 H         1 <0>         0.4175
     41 H20         0.3178    3.9633   -0.0166 H         1 <0>         0.4001
     42 H21         1.9978    3.9808   -0.0228 H         1 <0>         0.4029
@<TRIPOS>BOND
     1    1    6 ar
     2    1    2 ar
     3    1   24 1
     4    2    3 ar
     5    2   23 1
     6    3    4 ar
     7    3   25 1
     8    4    5 ar
     9    4   19 1
    10    5    6 ar
    11    5   26 1
    12    6    7 1
    13    7   13 1
    14    7    8 1
    15    8    9 1
    16    8   27 1
    17    8   28 1
    18    9   10 1
    19    9   29 1
    20    9   30 1
    21   10   11 1
    22   11   12 1
    23   11   18 1
    24   11   13 1
    25   13   14 1
    26   13   15 1
    27   15   16 1
    28   15   31 1
    29   15   32 1
    30   16   17 1
    31   16   33 1
    32   16   34 1
    33   17   18 1
    34   17   35 1
    35   17   36 1
    36   18   37 1
    37   18   38 1
    38   19   20 2
    39   19   21 2
    40   19   22 1
    41   22   39 1
    42   22   40 1
    43   23   41 1
    44   23   42 1
@<TRIPOS>MOLECULE
ZINC51118978
   32    33     0     0     0
SMALL
USER_CHARGES

@<TRIPOS>ATOM
      1 C1         -0.0108    1.3903    0.1669 C.3       1 <0>         0.0974
      2 N1          0.0083   -0.0740    0.1266 N.pl3     1 <0>        -0.3718
      3 C2          0.0125   -0.8376   -0.9860 C.2       1 <0>         0.0813
      4 C3          0.0317   -2.1335   -0.5968 C.2       1 <0>        -0.2693
      5 C4          0.0395   -2.1628    0.8016 C.2       1 <0>         0.0653
      6 N2          0.0317   -0.9287    1.2362 N.2       1 <0>        -0.2929
      7 C5          0.0419   -3.3331   -1.5088 C.3       1 <0>         0.2015
      8 N3          1.4263   -3.7038   -1.8126 N.am      1 <0>        -0.7162
      9 C6          1.6815   -4.7554   -2.6160 C.2       1 <0>         0.5803
     10 O1          0.7627   -5.3965   -3.0887 O.2       1 <0>        -0.5518
     11 C7          3.0747   -5.1285   -2.9217 C.ar      1 <0>        -0.2660
     12 C8          4.1383   -4.3290   -2.4870 C.ar      1 <0>         0.0373
     13 C9          5.4277   -4.7233   -2.7996 C.ar      1 <0>        -0.2251
     14 C10         5.6280   -5.8850   -3.5256 C.ar      1 <0>         0.2210
     15 N4          4.6121   -6.6240   -3.9261 N.ar      1 <0>        -0.5210
     16 C11         3.3593   -6.2962   -3.6496 C.ar      1 <0>         0.4680
     17 N5          2.3248   -7.1044   -4.0848 N.pl3     1 <0>        -0.5367
     18 N6          2.5990   -8.2962   -4.6935 N.3       1 <0>        -0.6029
     19 Br1         6.9042   -3.6830   -2.2398 Br        1 <0>        -0.0345
     20 H1          1.0119    1.7672    0.1662 H         1 <0>         0.0786
     21 H2         -0.5388    1.7709   -0.7075 H         1 <0>         0.0902
     22 H3         -0.5199    1.7223    1.0717 H         1 <0>         0.0922
     23 H4          0.0019   -0.4788   -2.0046 H         1 <0>         0.1774
     24 H5          0.0546   -3.0506    1.4163 H         1 <0>         0.1854
     25 H6         -0.4582   -4.1676   -1.0172 H         1 <0>         0.0800
     26 H7         -0.4807   -3.0905   -2.4341 H         1 <0>         0.0772
     27 H8          2.1592   -3.1924   -1.4355 H         1 <0>         0.4022
     28 H9          3.9572   -3.4265   -1.9221 H         1 <0>         0.1441
     29 H10         6.6347   -6.1913   -3.7687 H         1 <0>         0.1710
     30 H11         1.4047   -6.8250   -3.9579 H         1 <0>         0.4309
     31 H12         3.1741   -8.8793   -4.1043 H         1 <0>         0.3461
     32 H13         1.7489   -8.7728   -4.9546 H         1 <0>         0.3607
@<TRIPOS>BOND
     1    1    2 1
     2    1   20 1
     3    1   21 1
     4    1   22 1
     5    2    6 1
     6    2    3 1
     7    3    4 2
     8    3   23 1
     9    4    5 1
    10    4    7 1
    11    5    6 2
    12    5   24 1
    13    7    8 1
    14    7   25 1
    15    7   26 1
    16    8    9 am
    17    8   27 1
    18    9   10 2
    19    9   11 1
    20   11   16 ar
    21   11   12 ar
    22   12   13 ar
    23   12   28 1
    24   13   14 ar
    25   13   19 1
    26   14   15 ar
    27   14   29 1
    28   15   16 ar
    29   16   17 1
    30   17   18 1
    31   17   30 1
    32   18   31 1
    33   18   32 1
@<TRIPOS>MOLECULE
ZINC02235523
   39    43     0     0     0
SMALL
USER_CHARGES

@<TRIPOS>ATOM
      1 C1         -0.1673    1.3528   -0.0611 C.ar      1 <0>        -0.1409
      2 C2          0.9992    2.0958   -0.0583 C.ar      1 <0>        -0.0804
      3 C3          2.2263    1.4660   -0.0456 C.ar      1 <0>        -0.1389
      4 C4          2.3000    0.0748   -0.0345 C.ar      1 <0>         0.1469
      5 C5          1.1200   -0.6619   -0.0365 C.ar      1 <0>        -0.1355
      6 C6         -0.1029   -0.0294   -0.0506 C.ar      1 <0>        -0.0501
      7 C7          1.5342   -2.1082   -0.0193 C.3       1 <0>         0.1254
      8 C8          1.0661   -2.7185    1.2774 C.2       1 <0>        -0.2018
      9 C9          0.2496   -3.8077    1.2027 C.2       1 <0>         0.5011
     10 N1         -0.1451   -4.3446   -0.0047 N.pl3     1 <0>        -0.4640
     11 C10        -0.9852   -5.4397   -0.2524 C.ar      1 <0>         0.0700
     12 C11        -1.6709   -6.3001    0.5924 C.ar      1 <0>        -0.0956
     13 C12        -2.4421   -7.3152    0.0603 C.ar      1 <0>        -0.1052
     14 C13        -2.5306   -7.4766   -1.3117 C.ar      1 <0>        -0.0886
     15 C14        -1.8522   -6.6236   -2.1597 C.ar      1 <0>        -0.1048
     16 C15        -1.0760   -5.5995   -1.6336 C.ar      1 <0>         0.1210
     17 N2         -0.2988   -4.6055   -2.2188 N.pl3     1 <0>        -0.6245
     18 C16         0.2548   -3.8451   -1.2166 C.2       1 <0>         0.4618
     19 C17         1.0787   -2.7495   -1.3037 C.2       1 <0>        -0.2068
     20 C18         1.4907   -2.2335   -2.5743 C.1       1 <0>         0.2750
     21 N3          1.8176   -1.8242   -3.5824 N.1       1 <0>        -0.4254
     22 N4         -0.1934   -4.3889    2.3666 N.pl3     1 <0>        -0.8532
     23 C19         1.4647   -2.1746    2.5406 C.1       1 <0>         0.2770
     24 N5          1.7809   -1.7430    3.5428 N.1       1 <0>        -0.4183
     25 C20         3.0401   -2.0775   -0.0117 C.2       1 <0>         0.5346
     26 O1          3.7829   -3.0362    0.0003 O.2       1 <0>        -0.4810
     27 N6          3.4031   -0.7810   -0.0212 N.am      1 <0>        -0.6621
     28 H1         -1.1260    1.8501   -0.0669 H         1 <0>         0.1302
     29 H2          0.9491    3.1746   -0.0665 H         1 <0>         0.1314
     30 H3          3.1328    2.0531   -0.0446 H         1 <0>         0.1267
     31 H4         -1.0121   -0.6122   -0.0535 H         1 <0>         0.1259
     32 H5         -1.6024   -6.1764    1.6631 H         1 <0>         0.1326
     33 H6         -2.9774   -7.9852    0.7167 H         1 <0>         0.1430
     34 H7         -3.1336   -8.2736   -1.7210 H         1 <0>         0.1427
     35 H8         -1.9246   -6.7531   -3.2295 H         1 <0>         0.1412
     36 H9         -0.1694   -4.4721   -3.1709 H         1 <0>         0.4455
     37 H10        -0.2178   -3.8729    3.1876 H         1 <0>         0.4241
     38 H11        -0.4817   -5.3150    2.3671 H         1 <0>         0.4069
     39 H12         4.3241   -0.4768   -0.0193 H         1 <0>         0.4141
@<TRIPOS>BOND
     1    1    6 ar
     2    1    2 ar
     3    1   28 1
     4    2    3 ar
     5    2   29 1
     6    3    4 ar
     7    3   30 1
     8    4   27 1
     9    4    5 ar
    10    5    6 ar
    11    5    7 1
    12    6   31 1
    13    7   19 1
    14    7    8 1
    15    7   25 1
    16    8    9 2
    17    8   23 1
    18    9   10 1
    19    9   22 1
    20   10   18 1
    21   10   11 1
    22   11   16 ar
    23   11   12 ar
    24   12   13 ar
    25   12   32 1
    26   13   14 ar
    27   13   33 1
    28   14   15 ar
    29   14   34 1
    30   15   16 ar
    31   15   35 1
    32   16   17 1
    33   17   18 1
    34   17   36 1
    35   18   19 2
    36   19   20 1
    37   20   21 3
    38   22   37 1
    39   22   38 1
    40   23   24 3
    41   25   26 2
    42   25   27 am
    43   27   39 1
@<TRIPOS>MOLECULE
ZINC00421464
   40    43     0     0     0
SMALL
USER_CHARGES
4-amino-9-methyl-2-(7-methyl-2-oxo-1H-quinolin-3-yl)-5-oxa-7,8-diazabicyclo[4.3.0]nona-3,8,10-triene-3-carbonitrile
@<TRIPOS>ATOM
      1 C1         -4.9513    3.9942    0.0697 C.3       1 <0>        -0.1220
      2 C2         -3.6523    3.2305    0.0537 C.ar      1 <0>        -0.0302
      3 C3         -3.6717    1.8422    0.0464 C.ar      1 <0>        -0.1517
      4 C4         -2.5057    1.1308    0.0315 C.ar      1 <0>        -0.0506
      5 C5         -1.2810    1.8068    0.0178 C.ar      1 <0>        -0.1341
      6 C6         -0.0126    1.0758    0.0080 C.2       1 <0>        -0.0178
      7 C7          1.1434    1.7846    0.0007 C.2       1 <0>        -0.1704
      8 C8          1.1121    3.1956    0.0081 C.2       1 <0>         0.5473
      9 O1          2.1629    3.8132    0.0014 O.2       1 <0>        -0.5285
     10 N1         -0.0477    3.8755    0.0228 N.am      1 <0>        -0.6358
     11 H1         -0.0327    4.8754    0.0280 H         1 <0>         0.4188
     12 C9         -1.2573    3.2141    0.0308 C.ar      1 <0>         0.1904
     13 C10        -2.4576    3.9173    0.0461 C.ar      1 <0>        -0.1690
     14 C11         2.4663    1.0630   -0.0158 C.3       1 <0>         0.1473
     15 H2          2.2977   -0.0137   -0.0308 H         1 <0>         0.0983
     16 C12         3.2536    1.4724   -1.2337 C.2       1 <0>        -0.2688
     17 C13         3.0463    1.1427   -2.5663 C.2       1 <0>         0.1165
     18 N2          3.9788    1.7272   -3.2804 N.2       1 <0>        -0.2701
     19 N3          4.8126    2.4512   -2.4139 N.pl3     1 <0>        -0.4526
     20 H3          5.6077    2.9960   -2.6803 H         1 <0>         0.4517
     21 C14         4.3528    2.2822   -1.1638 C.2       1 <0>         0.3036
     22 O2          4.8227    2.7794    0.0073 O.3       1 <0>        -0.2233
     23 C15         4.3491    2.2405    1.1492 C.2       1 <0>         0.4658
     24 C16         3.2648    1.4361    1.2084 C.2       1 <0>        -0.2709
     25 C17         2.8585    0.9190    2.4805 C.1       1 <0>         0.2724
     26 N4          2.5362    0.5088    3.4896 N.1       1 <0>        -0.4469
     27 N5          5.0072    2.5253    2.3198 N.pl3     1 <0>        -0.8325
     28 C18         1.9425    0.2661   -3.0995 C.3       1 <0>        -0.0777
     29 H4         -5.2741    4.1836   -0.9540 H         1 <0>         0.0776
     30 H5         -5.7108    3.4085    0.5877 H         1 <0>         0.0726
     31 H6         -4.8087    4.9429    0.5871 H         1 <0>         0.0698
     32 H7         -4.6171    1.3201    0.0529 H         1 <0>         0.1296
     33 H8         -2.5292    0.0511    0.0255 H         1 <0>         0.1360
     34 H9          0.0021   -0.0041    0.0020 H         1 <0>         0.1453
     35 H10        -2.4532    4.9972    0.0522 H         1 <0>         0.1318
     36 H11         4.6906    2.1522    3.1573 H         1 <0>         0.4263
     37 H12         5.7888    3.0997    2.3094 H         1 <0>         0.4103
     38 H13         1.0743    0.8801   -3.3387 H         1 <0>         0.0807
     39 H14         2.2861   -0.2436   -3.9997 H         1 <0>         0.0790
     40 H15         1.6689   -0.4724   -2.3459 H         1 <0>         0.0818
@<TRIPOS>BOND
     1    1    2 1
     2    1   29 1
     3    1   30 1
     4    1   31 1
     5    2   13 ar
     6    2    3 ar
     7    3    4 ar
     8    3   32 1
     9    4    5 ar
    10    4   33 1
    11    5   12 ar
    12    5    6 1
    13    6    7 2
    14    6   34 1
    15    7    8 1
    16    7   14 1
    17    8    9 2
    18    8   10 am
    19   10   11 1
    20   10   12 1
    21   12   13 ar
    22   13   35 1
    23   14   15 1
    24   14   24 1
    25   14   16 1
    26   16   21 2
    27   16   17 1
    28   17   18 2
    29   17   28 1
    30   18   19 1
    31   19   20 1
    32   19   21 1
    33   21   22 1
    34   22   23 1
    35   23   24 2
    36   23   27 1
    37   24   25 1
    38   25   26 3
    39   27   36 1
    40   27   37 1
    41   28   38 1
    42   28   39 1
    43   28   40 1
@<TRIPOS>MOLECULE
ZINC06755892
   44    45     0     0     0
SMALL
USER_CHARGES
N'-(9-carbamoyl-3,3-dimethyl-4-oxa-7-thiabicyclo[4.3.0]nona-8,10-dien-8-yl)-N-isopropyl-oxamide
@<TRIPOS>ATOM
      1 C1         -5.1426  -10.2412   -1.5627 C.3       1 <0>        -0.1676
      2 C2         -4.2089  -10.1309   -0.3557 C.3       1 <0>         0.1340
      3 C3         -3.4034  -11.4240   -0.2141 C.3       1 <0>        -0.1632
      4 N1         -3.2931   -9.0037   -0.5481 N.am      1 <0>        -0.6894
      5 C4         -3.6755   -7.7583   -0.2029 C.2       1 <0>         0.5180
      6 O1         -4.7785   -7.5706    0.2673 O.2       1 <0>        -0.5078
      7 C5         -2.7422   -6.6096   -0.3990 C.2       1 <0>         0.5029
      8 O2         -1.6390   -6.7974   -0.8693 O.2       1 <0>        -0.4776
      9 N2         -3.1246   -5.3642   -0.0538 N.am      1 <0>        -0.5909
     10 C6         -2.2594   -4.2993   -0.2356 C.2       1 <0>         0.0629
     11 C7         -2.4696   -2.9567    0.0561 C.2       1 <0>        -0.2141
     12 C8         -1.3902   -2.0341   -0.2323 C.2       1 <0>        -0.0533
     13 C9         -0.2776   -2.5933   -0.7642 C.2       1 <0>        -0.2587
     14 S1         -0.6508   -4.3172   -0.8812 S.3       1 <0>         0.2642
     15 C10         0.9728   -1.8688   -1.1535 C.3       1 <0>         0.1477
     16 O3          0.6776   -0.4625   -1.1721 O.3       1 <0>        -0.3593
     17 C11         0.0021   -0.0041    0.0020 C.3       1 <0>         0.1125
     18 C12        -1.4363   -0.5315    0.0200 C.3       1 <0>        -0.0815
     19 C13        -0.0187    1.5258    0.0104 C.3       1 <0>        -0.1402
     20 C14         0.7426   -0.5080    1.2425 C.3       1 <0>        -0.1816
     21 C15        -3.7353   -2.4918    0.6330 C.2       1 <0>         0.5817
     22 O4         -4.6472   -2.1492   -0.0966 O.2       1 <0>        -0.5271
     23 N3         -3.8885   -2.4438    1.9712 N.am      1 <0>        -0.8463
     24 H1         -5.8240  -11.0799   -1.4195 H         1 <0>         0.0735
     25 H2         -5.7164   -9.3200   -1.6635 H         1 <0>         0.0622
     26 H3         -4.5526  -10.4023   -2.4649 H         1 <0>         0.0615
     27 H4         -4.7989   -9.9698    0.5466 H         1 <0>         0.0955
     28 H5         -2.7382  -11.3455    0.6458 H         1 <0>         0.0652
     29 H6         -4.0848  -12.2627   -0.0710 H         1 <0>         0.0798
     30 H7         -2.8134  -11.5852   -1.1164 H         1 <0>         0.0656
     31 H8         -2.4115   -9.1538   -0.9239 H         1 <0>         0.4147
     32 H9         -4.0061   -5.2142    0.3220 H         1 <0>         0.4323
     33 H10         1.7589   -2.0728   -0.4266 H         1 <0>         0.0783
     34 H11         1.2933   -2.1923   -2.1439 H         1 <0>         0.1116
     35 H12        -1.8887   -0.3349    0.9921 H         1 <0>         0.0851
     36 H13        -2.0176   -0.0434   -0.7623 H         1 <0>         0.0908
     37 H14         1.0039    1.9031    0.0027 H         1 <0>         0.0684
     38 H15        -0.5459    1.8868   -0.8726 H         1 <0>         0.0666
     39 H16        -0.5289    1.8773    0.9072 H         1 <0>         0.0731
     40 H17         0.2320   -0.1554    2.1386 H         1 <0>         0.0687
     41 H18         0.7585   -1.5978    1.2384 H         1 <0>         0.0647
     42 H19         1.7648   -0.1296    1.2341 H         1 <0>         0.0680
     43 H20        -3.1618   -2.7168    2.5527 H         1 <0>         0.4036
     44 H21        -4.7256   -2.1362    2.3528 H         1 <0>         0.4056
@<TRIPOS>BOND
     1    1    2 1
     2    1   24 1
     3    1   25 1
     4    1   26 1
     5    2    3 1
     6    2    4 1
     7    2   27 1
     8    3   28 1
     9    3   29 1
    10    3   30 1
    11    4    5 am
    12    4   31 1
    13    5    6 2
    14    5    7 1
    15    7    8 2
    16    7    9 am
    17    9   10 1
    18    9   32 1
    19   10   14 1
    20   10   11 2
    21   11   12 1
    22   11   21 1
    23   12   18 1
    24   12   13 2
    25   13   14 1
    26   13   15 1
    27   15   16 1
    28   15   33 1
    29   15   34 1
    30   16   17 1
    31   17   18 1
    32   17   19 1
    33   17   20 1
    34   18   35 1
    35   18   36 1
    36   19   37 1
    37   19   38 1
    38   19   39 1
    39   20   40 1
    40   20   41 1
    41   20   42 1
    42   21   22 2
    43   21   23 am
    44   23   43 1
    45   23   44 1
@<TRIPOS>MOLECULE
ZINC31165334
   48    50     0     0     0
SMALL
USER_CHARGES
(3R,4R)-4-(2-acetonyl-4,6-dihydroxy-phenyl)-6,8-dihydroxy-7-methoxy-3-methyl-isochroman-1-one
@<TRIPOS>ATOM
      1 C1          0.6573    0.3317   -4.2856 C.3       1 <0>        -0.1935
      2 C2          1.5345   -0.1740   -3.1385 C.3       1 <0>         0.1054
      3 H1          0.9313   -0.7267   -2.4032 H         1 <0>         0.1321
      4 C3          2.2459    1.0087   -2.4801 C.3       1 <0>        -0.0266
      5 H2          1.5184    1.8026   -2.2554 H         1 <0>         0.1106
      6 C4          3.2946    1.5684   -3.4051 C.ar      1 <0>         0.0591
      7 C5          3.7472    2.8573   -3.2276 C.ar      1 <0>        -0.2028
      8 C6          4.7169    3.3833   -4.0735 C.ar      1 <0>         0.2264
      9 C7          5.2405    2.6154   -5.1077 C.ar      1 <0>        -0.0731
     10 C8          4.7928    1.3148   -5.2976 C.ar      1 <0>         0.2616
     11 C9          3.8145    0.7893   -4.4439 C.ar      1 <0>        -0.2868
     12 C10         3.3233   -0.5893   -4.6332 C.2       1 <0>         0.5677
     13 O1          3.6172   -1.2368   -5.6189 O.2       1 <0>        -0.4867
     14 O2          2.5286   -1.1035   -3.6594 O.3       1 <0>        -0.3282
     15 O3          5.2992    0.5580   -6.3044 O.3       1 <0>        -0.4990
     16 O4          6.1902    3.1370   -5.9314 O.3       1 <0>        -0.3133
     17 C11         7.5541    2.9573   -5.5447 C.3       1 <0>         0.0202
     18 O5          5.1553    4.6553   -3.8889 O.3       1 <0>        -0.4915
     19 C12         2.9010    0.5488   -1.2032 C.ar      1 <0>        -0.1595
     20 C13         2.4064    0.9692    0.0168 C.ar      1 <0>         0.0162
     21 C14         3.0013    0.5448    1.1893 C.ar      1 <0>        -0.1955
     22 C15         4.1014   -0.3002    1.1443 C.ar      1 <0>         0.2057
     23 C16         4.6029   -0.7187   -0.0783 C.ar      1 <0>        -0.3121
     24 C17         4.0038   -0.2918   -1.2536 C.ar      1 <0>         0.2258
     25 O6          4.4934   -0.7001   -2.4538 O.3       1 <0>        -0.4896
     26 O7          4.6868   -0.7166    2.2979 O.3       1 <0>        -0.5064
     27 C18         1.2123    1.8871    0.0685 C.3       1 <0>        -0.1457
     28 C19        -0.0523    1.0709   -0.0071 C.2       1 <0>         0.3522
     29 O8          0.0097   -0.1319   -0.0940 O.2       1 <0>        -0.4405
     30 C20        -1.3941    1.7564    0.0195 C.3       1 <0>        -0.2092
     31 H3         -0.0928    1.0332   -3.8917 H         1 <0>         0.0837
     32 H4          0.1488   -0.5199   -4.7612 H         1 <0>         0.0784
     33 H5          1.2853    0.8453   -5.0285 H         1 <0>         0.0664
     34 H6          3.3470    3.4619   -2.4272 H         1 <0>         0.1398
     35 H7          4.9419   -0.4719   -6.4515 H         1 <0>         0.4460
     36 H8          8.2118    3.4237   -6.2929 H         1 <0>         0.0987
     37 H9          7.7780    1.8823   -5.4789 H         1 <0>         0.0498
     38 H10         7.7223    3.4275   -4.5646 H         1 <0>         0.0433
     39 H11         5.9225    5.0749   -4.5562 H         1 <0>         0.4426
     40 H12         2.6102    0.8712    2.1416 H         1 <0>         0.1291
     41 H13         5.4587   -1.3765   -0.1154 H         1 <0>         0.1301
     42 H14         5.3677   -1.3665   -2.4932 H         1 <0>         0.4255
     43 H15         5.5587   -1.3863    2.2617 H         1 <0>         0.4351
     44 H16         1.2267    2.4547    1.0107 H         1 <0>         0.1174
     45 H17         1.2494    2.5853   -0.7807 H         1 <0>         0.1148
     46 H18        -2.1924    1.0023   -0.0447 H         1 <0>         0.0860
     47 H19        -1.4709    2.4453   -0.8346 H         1 <0>         0.0950
     48 H20        -1.4984    2.3219    0.9572 H         1 <0>         0.0955
@<TRIPOS>BOND
     1    1    2 1
     2    1   31 1
     3    1   32 1
     4    1   33 1
     5    2    3 1
     6    2   14 1
     7    2    4 1
     8    4    5 1
     9    4    6 1
    10    4   19 1
    11    6   11 ar
    12    6    7 ar
    13    7    8 ar
    14    7   34 1
    15    8    9 ar
    16    8   18 1
    17    9   10 ar
    18    9   16 1
    19   10   11 ar
    20   10   15 1
    21   11   12 1
    22   12   13 2
    23   12   14 1
    24   15   35 1
    25   16   17 1
    26   17   36 1
    27   17   37 1
    28   17   38 1
    29   18   39 1
    30   19   24 ar
    31   19   20 ar
    32   20   21 ar
    33   20   27 1
    34   21   22 ar
    35   21   40 1
    36   22   23 ar
    37   22   26 1
    38   23   24 ar
    39   23   41 1
    40   24   25 1
    41   25   42 1
    42   26   43 1
    43   27   28 1
    44   27   44 1
    45   27   45 1
    46   28   29 2
    47   28   30 1
    48   30   46 1
    49   30   47 1
    50   30   48 1
@<TRIPOS>MOLECULE
ZINC41070129
   34    35     0     0     0
SMALL
USER_CHARGES

@<TRIPOS>ATOM
      1 C1          0.0760   -1.5167    1.7726 C.ar      1 <0>         0.0970
      2 C2          1.2330   -1.0149    2.3560 C.ar      1 <0>        -0.2285
      3 C3          1.8296    0.1081    1.8173 C.ar      1 <0>         0.2423
      4 N1          1.3144    0.7066    0.7599 N.ar      1 <0>        -0.5203
      5 C4          0.2138    0.2589    0.1761 C.ar      1 <0>         0.5064
      6 C5         -0.4395   -0.8679    0.6653 C.ar      1 <0>        -0.7959
      7 S1         -1.9038   -1.4604   -0.1154 S.o2      1 <0>         2.6968
      8 O1         -2.2928   -2.6325    0.5874 O.2       1 <0>        -0.9440
      9 O2         -2.7657   -0.3406   -0.2652 O.2       1 <0>        -0.9573
     10 N2         -1.4836   -1.9419   -1.6431 N.pl3     1 <0>        -1.1131
     11 C6         -0.5491   -3.0547   -1.8293 C.3       1 <0>         0.1531
     12 C7          0.6628   -2.5768   -2.6349 C.3       1 <0>        -0.1669
     13 C8          1.5952   -3.7635   -2.8919 C.3       1 <0>         0.0618
     14 O3          0.8782   -4.7906   -3.5797 O.3       1 <0>        -0.3791
     15 C9         -0.2380   -5.3094   -2.8537 C.3       1 <0>         0.0602
     16 C10        -1.2440   -4.1847   -2.5952 C.3       1 <0>        -0.1663
     17 N3         -0.2943    0.9212   -0.9359 N.pl3     1 <0>        -0.5542
     18 N4          0.3196    2.0507   -1.3977 N.3       1 <0>        -0.5905
     19 Br1         1.9825   -1.8607    3.8722 Br        1 <0>        -0.0227
     20 H1         -0.4073   -2.3960    2.1720 H         1 <0>         0.1642
     21 H2          2.7290    0.5017    2.2673 H         1 <0>         0.1767
     22 H3         -1.8562   -1.4872   -2.4146 H         1 <0>         0.4192
     23 H4         -0.2206   -3.4216   -0.8569 H         1 <0>         0.0925
     24 H5          0.3279   -2.1640   -3.5865 H         1 <0>         0.0822
     25 H6          1.1954   -1.8105   -2.0717 H         1 <0>         0.0788
     26 H7          2.4382   -3.4381   -3.5014 H         1 <0>         0.1003
     27 H8          1.9617   -4.1504   -1.9411 H         1 <0>         0.0543
     28 H9         -0.7156   -6.0976   -3.4357 H         1 <0>         0.1017
     29 H10         0.1045   -5.7165   -1.9024 H         1 <0>         0.0561
     30 H11        -2.0752   -4.5684   -2.0035 H         1 <0>         0.0867
     31 H12        -1.6175   -3.8044   -3.5459 H         1 <0>         0.0815
     32 H13        -1.0847    0.5812   -1.3837 H         1 <0>         0.4097
     33 H14        -0.1598    2.4181   -2.2060 H         1 <0>         0.3639
     34 H15         0.3892    2.7473   -0.6710 H         1 <0>         0.3535
@<TRIPOS>BOND
     1    1    6 ar
     2    1    2 ar
     3    1   20 1
     4    2    3 ar
     5    2   19 1
     6    3    4 ar
     7    3   21 1
     8    4    5 ar
     9    5    6 ar
    10    5   17 1
    11    6    7 1
    12    7    8 2
    13    7    9 2
    14    7   10 1
    15   10   11 1
    16   10   22 1
    17   11   16 1
    18   11   12 1
    19   11   23 1
    20   12   13 1
    21   12   24 1
    22   12   25 1
    23   13   14 1
    24   13   26 1
    25   13   27 1
    26   14   15 1
    27   15   16 1
    28   15   28 1
    29   15   29 1
    30   16   30 1
    31   16   31 1
    32   17   18 1
    33   17   32 1
    34   18   33 1
    35   18   34 1
@<TRIPOS>MOLECULE
ZINC51117426
   37    38     0     0     0
SMALL
USER_CHARGES

@<TRIPOS>ATOM
      1 C1         -0.0988    1.5549    0.0252 C.3       1 <0>        -0.0863
      2 C2         -0.0880    0.0480    0.0356 C.2       1 <0>         0.0896
      3 C3         -0.0689   -0.6698   -1.1166 C.2       1 <0>        -0.2306
      4 S1         -0.0639   -2.3334   -0.4679 S.3       1 <0>         0.1031
      5 C4         -0.0863   -1.9431    1.1692 C.2       1 <0>         0.0687
      6 N1         -0.0910   -0.6335    1.1640 N.2       1 <0>        -0.5156
      7 C5         -0.0932   -2.8747    2.3538 C.3       1 <0>        -0.0693
      8 C6         -0.0555   -0.1943   -2.5465 C.3       1 <0>         0.2411
      9 H1         -0.3291    0.8602   -2.5814 H         1 <0>         0.1152
     10 C7          1.3463   -0.3771   -3.1317 C.3       1 <0>        -0.1615
     11 N2         -1.0171   -0.9744   -3.3295 N.am      1 <0>        -0.7177
     12 C8         -1.5566   -0.4518   -4.4486 C.2       1 <0>         0.5872
     13 O1         -1.2452    0.6673   -4.8083 O.2       1 <0>        -0.5467
     14 C9         -2.5242   -1.2369   -5.2365 C.ar      1 <0>        -0.2683
     15 C10        -2.7989   -2.5689   -4.9054 C.ar      1 <0>         0.0376
     16 C11        -3.7157   -3.2624   -5.6763 C.ar      1 <0>        -0.2243
     17 C12        -4.3292   -2.6265   -6.7422 C.ar      1 <0>         0.2231
     18 N3         -4.0561   -1.3709   -7.0377 N.ar      1 <0>        -0.5197
     19 C13        -3.1918   -0.6599   -6.3300 C.ar      1 <0>         0.4698
     20 N4         -2.9404    0.6563   -6.6726 N.pl3     1 <0>        -0.5360
     21 N5         -3.6674    1.2554   -7.6617 N.3       1 <0>        -0.6024
     22 Br1        -4.1266   -5.0645   -5.2772 Br        1 <0>        -0.0319
     23 H2          0.9262    1.9257    0.0304 H         1 <0>         0.0797
     24 H3         -0.6085    1.9084   -0.8711 H         1 <0>         0.0757
     25 H4         -0.6220    1.9206    0.9087 H         1 <0>         0.0783
     26 H5          0.9327   -3.0914    2.6515 H         1 <0>         0.0926
     27 H6         -0.6205   -2.4036    3.1833 H         1 <0>         0.0948
     28 H7         -0.5968   -3.8027    2.0832 H         1 <0>         0.0881
     29 H8          2.0617    0.2033   -2.5492 H         1 <0>         0.0741
     30 H9          1.6199   -1.4316   -3.0969 H         1 <0>         0.0623
     31 H10         1.3559   -0.0332   -4.1660 H         1 <0>         0.0737
     32 H11        -1.2655   -1.8671   -3.0426 H         1 <0>         0.4013
     33 H12        -2.3073   -3.0439   -4.0693 H         1 <0>         0.1434
     34 H13        -5.0444   -3.1690   -7.3428 H         1 <0>         0.1722
     35 H14        -2.2478    1.1539   -6.2105 H         1 <0>         0.4307
     36 H15        -4.6557    1.2068   -7.4641 H         1 <0>         0.3466
     37 H16        -3.3727    2.2105   -7.7992 H         1 <0>         0.3611
@<TRIPOS>BOND
     1    1    2 1
     2    1   23 1
     3    1   24 1
     4    1   25 1
     5    2    6 1
     6    2    3 2
     7    3    4 1
     8    3    8 1
     9    4    5 1
    10    5    6 2
    11    5    7 1
    12    7   26 1
    13    7   27 1
    14    7   28 1
    15    8    9 1
    16    8   10 1
    17    8   11 1
    18   10   29 1
    19   10   30 1
    20   10   31 1
    21   11   12 am
    22   11   32 1
    23   12   13 2
    24   12   14 1
    25   14   19 ar
    26   14   15 ar
    27   15   16 ar
    28   15   33 1
    29   16   17 ar
    30   16   22 1
    31   17   18 ar
    32   17   34 1
    33   18   19 ar
    34   19   20 1
    35   20   21 1
    36   20   35 1
    37   21   36 1
    38   21   37 1
@<TRIPOS>MOLECULE
ZINC03510246
   41    41     0     0     0
SMALL
USER_CHARGES
2-(4,6-diaminopyrimidin-2-yl)sulfanyl-N-(isopentylcarbamoyl)acetamide
@<TRIPOS>ATOM
      1 C1          5.1050    8.2829    0.1235 C.3       1 <0>        -0.1482
      2 C2          3.6739    7.7540    0.0086 C.3       1 <0>        -0.0934
      3 C3          3.0450    8.2627   -1.2901 C.3       1 <0>        -0.1543
      4 C4          3.6947    6.2242    0.0002 C.3       1 <0>        -0.1271
      5 C5          2.2593    5.6946    0.0111 C.3       1 <0>         0.1311
      6 N1          2.2792    4.2298    0.0030 N.am      1 <0>        -0.7370
      7 C6          1.1213    3.5401    0.0104 C.2       1 <0>         0.6933
      8 O1          0.0606    4.1334    0.0237 O.2       1 <0>        -0.5251
      9 N2          1.1395    2.1925    0.0030 N.am      1 <0>        -0.6866
     10 C7         -0.0184    1.5028    0.0103 C.2       1 <0>         0.5352
     11 O2         -1.0764    2.0946    0.0185 O.2       1 <0>        -0.4481
     12 C8          0.0021   -0.0041    0.0020 C.3       1 <0>        -0.1533
     13 S1         -1.6960   -0.6306    0.0149 S.3       1 <0>         0.0974
     14 C9         -1.3825   -2.3644    0.0026 C.ar      1 <0>         0.3639
     15 N3         -0.1290   -2.7934   -0.0171 N.ar      1 <0>        -0.6209
     16 C10         0.1456   -4.0958   -0.0213 C.ar      1 <0>         0.4769
     17 C11        -0.9043   -5.0095   -0.0162 C.ar      1 <0>        -0.3702
     18 C12        -2.2077   -4.5214   -0.0011 C.ar      1 <0>         0.4780
     19 N4         -2.4065   -3.2054    0.0078 N.ar      1 <0>        -0.5896
     20 N5         -3.2845   -5.3943    0.0049 N.pl3     1 <0>        -0.8346
     21 N6          1.4599   -4.5363   -0.0358 N.pl3     1 <0>        -0.8367
     22 H1          5.6913    7.9321   -0.7258 H         1 <0>         0.0552
     23 H2          5.0902    9.3728    0.1295 H         1 <0>         0.0575
     24 H3          5.5531    7.9205    1.0487 H         1 <0>         0.0550
     25 H4          3.0877    8.1048    0.8580 H         1 <0>         0.0745
     26 H5          3.0302    9.3526   -1.2841 H         1 <0>         0.0570
     27 H6          3.6312    7.9120   -2.1394 H         1 <0>         0.0555
     28 H7          2.0254    7.8860   -1.3719 H         1 <0>         0.0589
     29 H8          4.2219    5.8631    0.8833 H         1 <0>         0.0708
     30 H9          4.2049    5.8727   -0.8966 H         1 <0>         0.0711
     31 H10         1.7321    6.0557   -0.8720 H         1 <0>         0.0737
     32 H11         1.7491    6.0461    0.9079 H         1 <0>         0.0705
     33 H12         3.1257    3.7563   -0.0076 H         1 <0>         0.3988
     34 H13         1.9860    1.7190   -0.0077 H         1 <0>         0.4120
     35 H14         0.5123   -0.3556   -0.8948 H         1 <0>         0.1313
     36 H15         0.5293   -0.3651    0.8851 H         1 <0>         0.1310
     37 H16        -0.7122   -6.0723   -0.0241 H         1 <0>         0.1367
     38 H17        -4.1902   -5.0472    0.0157 H         1 <0>         0.4093
     39 H18        -3.1322   -6.3523   -0.0017 H         1 <0>         0.4122
     40 H19         1.6527   -5.4869   -0.0424 H         1 <0>         0.4120
     41 H20         2.1867   -3.8939   -0.0393 H         1 <0>         0.4064
@<TRIPOS>BOND
     1    1    2 1
     2    1   22 1
     3    1   23 1
     4    1   24 1
     5    2    3 1
     6    2    4 1
     7    2   25 1
     8    3   26 1
     9    3   27 1
    10    3   28 1
    11    4    5 1
    12    4   29 1
    13    4   30 1
    14    5    6 1
    15    5   31 1
    16    5   32 1
    17    6    7 am
    18    6   33 1
    19    7    8 2
    20    7    9 am
    21    9   10 am
    22    9   34 1
    23   10   11 2
    24   10   12 1
    25   12   13 1
    26   12   35 1
    27   12   36 1
    28   13   14 1
    29   14   19 ar
    30   14   15 ar
    31   15   16 ar
    32   16   17 ar
    33   16   21 1
    34   17   18 ar
    35   17   37 1
    36   18   19 ar
    37   18   20 1
    38   20   38 1
    39   20   39 1
    40   21   40 1
    41   21   41 1
@<TRIPOS>MOLECULE
ZINC19171932
   35    37     0     0     0
SMALL
USER_CHARGES
(6R)-6-hydrazino-N-methyl-8-nitro-5,6-dihydropyrimido[6,5-b][1,4]benzothiazepin-4-amine
@<TRIPOS>ATOM
      1 C1         -4.7385    2.5405    0.4158 C.3       1 <0>         0.1009
      2 N1         -3.4209    2.1777   -0.1119 N.pl3     1 <0>        -0.7221
      3 C2         -2.5236    3.1716   -0.4841 C.ar      1 <0>         0.4671
      4 C3         -1.2590    2.8455   -0.9908 C.ar      1 <0>         0.0932
      5 C4         -0.4263    3.8740   -1.3605 C.ar      1 <0>         0.1137
      6 N2         -0.8065    5.1387   -1.2125 N.ar      1 <0>        -0.5132
      7 C5         -2.0016    5.4106   -0.7196 C.ar      1 <0>         0.3291
      8 N3         -2.8437    4.4594   -0.3689 N.ar      1 <0>        -0.5640
      9 S1          1.1435    3.4592   -2.0341 S.3       1 <0>         0.0635
     10 C6          1.9767    2.5571   -0.7746 C.ar      1 <0>        -0.0529
     11 C7          3.3278    2.8910   -0.5846 C.ar      1 <0>        -0.0890
     12 C8          4.1104    2.2316    0.3307 C.ar      1 <0>        -0.0493
     13 C9          3.5510    1.2152    1.0851 C.ar      1 <0>        -0.0380
     14 C10         2.2255    0.8981    0.9181 C.ar      1 <0>        -0.0291
     15 C11         1.4098    1.5703   -0.0030 C.ar      1 <0>        -0.0813
     16 C12        -0.0127    1.0858    0.0080 C.3       1 <0>         0.3674
     17 H1          0.0130   -0.0056   -0.1272 H         1 <0>         0.1158
     18 N4         -0.8482    1.5242   -1.0716 N.pl3     1 <0>        -0.7891
     19 N5         -0.6317    1.5216    1.2669 N.3       1 <0>        -0.5415
     20 N6         -0.6861    2.9724    1.3460 N.3       1 <0>        -0.6599
     21 N7          4.3765    0.4742    2.0654 N.pl3     1 <0>         0.0272
     22 O1          5.5520    0.7585    2.2101 O.2       1 <0>        -0.1537
     23 O2          3.8801   -0.4197    2.7273 O.3       1 <0>        -0.1562
     24 H2         -5.3029    1.6266    0.6529 H         1 <0>         0.0713
     25 H3         -5.2869    3.1251   -0.3375 H         1 <0>         0.0564
     26 H4         -4.6150    3.1423    1.3283 H         1 <0>         0.0576
     27 H5         -3.1417    1.1186   -0.2136 H         1 <0>         0.4289
     28 H6         -2.2973    6.4426   -0.6010 H         1 <0>         0.1937
     29 H7          3.7618    3.6858   -1.1732 H         1 <0>         0.1560
     30 H8          5.1478    2.5025    0.4604 H         1 <0>         0.1617
     31 H9          1.7978    0.1063    1.5152 H         1 <0>         0.1559
     32 H10        -1.1147    0.8265   -1.8792 H         1 <0>         0.4314
     33 H11        -1.5503    1.1188    1.3766 H         1 <0>         0.3587
     34 H12        -1.1530    3.2705    2.2963 H         1 <0>         0.3493
     35 H13         0.3339    3.3809    1.2946 H         1 <0>         0.3404
@<TRIPOS>BOND
     1    1    2 1
     2    1   24 1
     3    1   25 1
     4    1   26 1
     5    2    3 1
     6    2   27 1
     7    3    8 ar
     8    3    4 ar
     9    4   18 1
    10    4    5 ar
    11    5    6 ar
    12    5    9 1
    13    6    7 ar
    14    7    8 ar
    15    7   28 1
    16    9   10 1
    17   10   15 ar
    18   10   11 ar
    19   11   12 ar
    20   11   29 1
    21   12   13 ar
    22   12   30 1
    23   13   14 ar
    24   13   21 1
    25   14   15 ar
    26   14   31 1
    27   15   16 1
    28   16   17 1
    29   16   18 1
    30   16   19 1
    31   18   32 1
    32   19   20 1
    33   19   33 1
    34   20   34 1
    35   20   35 1
    36   21   22 2
    37   21   23 1
@<TRIPOS>MOLECULE
ZINC06136022
   49    51     0     0     0
SMALL
USER_CHARGES

@<TRIPOS>ATOM
      1 C1         -0.0178    1.4608    0.0101 C.3       1 <0>         0.0768
      2 N1          0.0021   -0.0041    0.0020 N.pl3     1 <0>        -0.6062
      3 C2          0.0241   -0.7433    1.2666 C.3       1 <0>         0.0793
      4 C3          0.0000   -0.6913   -1.2033 C.ar      1 <0>         0.3065
      5 C4          0.0133   -2.0922   -1.2057 C.ar      1 <0>        -0.2053
      6 C5          0.0115   -2.7824   -2.3753 C.ar      1 <0>         0.0387
      7 C6         -0.0037   -2.0892   -3.6051 C.ar      1 <0>        -0.0329
      8 C7         -0.0172   -0.6731   -3.6037 C.ar      1 <0>         0.2346
      9 C8         -0.0209    0.0129   -2.3977 C.ar      1 <0>        -0.2705
     10 N2         -0.0318    0.0241   -4.7946 N.pl3     1 <0>        -0.4444
     11 C9         -0.0331   -0.6820   -5.9612 C.2       1 <0>         0.4630
     12 N3         -0.0460   -0.0902   -7.1446 N.2       1 <0>        -0.5987
     13 C10        -0.0466   -0.7935   -8.2738 C.2       1 <0>         0.6848
     14 O1         -0.0584   -0.1826   -9.3282 O.2       1 <0>        -0.5141
     15 N4         -0.0345   -2.1333   -8.3228 N.am      1 <0>        -0.6832
     16 H1         -0.0359   -2.5776   -9.1850 H         1 <0>         0.4253
     17 C11        -0.0201   -2.8777   -7.1930 C.2       1 <0>         0.5883
     18 O2         -0.0084   -4.0930   -7.2348 O.2       1 <0>        -0.4675
     19 C12        -0.0191   -2.1513   -5.9058 C.2       1 <0>        -0.0129
     20 N5         -0.0048   -2.7743   -4.7523 N.2       1 <0>        -0.2858
     21 C13        -0.0462    1.4890   -4.8052 C.3       1 <0>         0.0663
     22 C14         1.3912    2.0130   -4.8184 C.3       1 <0>         0.0688
     23 H2          1.9399    1.5899   -3.9770 H         1 <0>         0.1171
     24 C15         1.3788    3.5387   -4.7038 C.3       1 <0>         0.0512
     25 H3          0.9758    3.8269   -3.7329 H         1 <0>         0.1120
     26 C16         2.8062    4.0721   -4.8421 C.3       1 <0>         0.0850
     27 H4          3.2093    3.7839   -5.8129 H         1 <0>         0.1158
     28 C17         2.7939    5.5977   -4.7275 C.3       1 <0>         0.0459
     29 O3          4.1074    6.1044   -4.9722 O.3       1 <0>        -0.5643
     30 O4          3.6223    3.5231   -3.8055 O.3       1 <0>        -0.5390
     31 O5          0.5627    4.0877   -5.7404 O.3       1 <0>        -0.5473
     32 O6          2.0258    1.6323   -6.0408 O.3       1 <0>        -0.5366
     33 H5          1.0048    1.8381    0.0023 H         1 <0>         0.0636
     34 H6         -0.5450    1.8219   -0.8730 H         1 <0>         0.0741
     35 H7         -0.5280    1.8123    0.9069 H         1 <0>         0.0801
     36 H8          0.0224   -0.0395    2.0990 H         1 <0>         0.0845
     37 H9         -0.8567   -1.3823    1.3294 H         1 <0>         0.0681
     38 H10         0.9230   -1.3581    1.3125 H         1 <0>         0.0686
     39 H11         0.0254   -2.6285   -0.2683 H         1 <0>         0.1463
     40 H12         0.0222   -3.8623   -2.3647 H         1 <0>         0.1565
     41 H13        -0.0359    1.0928   -2.3892 H         1 <0>         0.1440
     42 H14        -0.5694    1.8408   -5.6944 H         1 <0>         0.1268
     43 H15        -0.5578    1.8538   -3.9145 H         1 <0>         0.1075
     44 H16         2.1022    6.0116   -5.4612 H         1 <0>         0.0645
     45 H17         2.4748    5.8842   -3.7254 H         1 <0>         0.0472
     46 H18         4.1743    7.0674   -4.9159 H         1 <0>         0.3820
     47 H19         3.3221    3.7397   -2.9122 H         1 <0>         0.3699
     48 H20         0.8629    3.8711   -6.6337 H         1 <0>         0.3839
     49 H21         1.5900    1.9745   -6.8334 H         1 <0>         0.3815
@<TRIPOS>BOND
     1    1    2 1
     2    1   33 1
     3    1   34 1
     4    1   35 1
     5    2    3 1
     6    2    4 1
     7    3   36 1
     8    3   37 1
     9    3   38 1
    10    4    9 ar
    11    4    5 ar
    12    5    6 ar
    13    5   39 1
    14    6    7 ar
    15    6   40 1
    16    7   20 1
    17    7    8 ar
    18    8    9 ar
    19    8   10 1
    20    9   41 1
    21   10   11 1
    22   10   21 1
    23   11   19 1
    24   11   12 2
    25   12   13 1
    26   13   14 2
    27   13   15 am
    28   15   16 1
    29   15   17 am
    30   17   18 2
    31   17   19 1
    32   19   20 2
    33   21   22 1
    34   21   42 1
    35   21   43 1
    36   22   23 1
    37   22   24 1
    38   22   32 1
    39   24   25 1
    40   24   26 1
    41   24   31 1
    42   26   27 1
    43   26   28 1
    44   26   30 1
    45   28   29 1
    46   28   44 1
    47   28   45 1
    48   29   46 1
    49   30   47 1
    50   31   48 1
    51   32   49 1
@<TRIPOS>MOLECULE
ZINC43509675
   46    49     0     0     0
SMALL
USER_CHARGES

@<TRIPOS>ATOM
      1 C1         -0.0187    1.5258    0.0104 C.3       1 <0>        -0.1476
      2 C2          0.0021   -0.0041    0.0020 C.3       1 <0>        -0.0851
      3 H1          0.5118   -0.3586   -0.8939 H         1 <0>         0.0801
      4 C3         -1.4254   -0.5357    0.0233 C.3       1 <0>        -0.0934
      5 C4         -1.4636   -2.0432    0.1467 C.2       1 <0>        -0.0724
      6 C5         -0.4536   -2.7231    0.6760 C.2       1 <0>        -0.1503
      7 C6         -0.4600   -4.2220    0.8137 C.3       1 <0>        -0.0564
      8 H2          0.1368   -4.6646    0.0162 H         1 <0>         0.1465
      9 C7          0.1074   -4.6283    2.1573 C.2       1 <0>         0.4080
     10 O1          0.7549   -3.8566    2.8322 O.2       1 <0>        -0.4124
     11 C8         -0.1652   -6.0098    2.6084 C.ar      1 <0>        -0.1180
     12 C9          0.5182   -6.5209    3.7157 C.ar      1 <0>        -0.0741
     13 C10         0.2680   -7.8078    4.1439 C.ar      1 <0>        -0.1055
     14 C11        -0.6576   -8.5913    3.4782 C.ar      1 <0>        -0.1173
     15 C12        -1.3393   -8.0917    2.3781 C.ar      1 <0>         0.1010
     16 C13        -1.0995   -6.7982    1.9358 C.ar      1 <0>        -0.1033
     17 C14        -1.8577   -6.2821    0.7401 C.3       1 <0>         0.1377
     18 H3         -2.8771   -6.6672    0.7659 H         1 <0>         0.0734
     19 C15        -1.8928   -4.7587    0.7411 C.3       1 <0>         0.1555
     20 C16        -2.5225   -4.2167   -0.5438 C.3       1 <0>         0.1091
     21 H4         -3.4868   -4.6960   -0.7128 H         1 <0>         0.0715
     22 C17        -2.7238   -2.7116   -0.3549 C.3       1 <0>         0.1084
     23 H5         -3.5281   -2.5357    0.3594 H         1 <0>         0.0843
     24 O2         -3.0862   -2.1390   -1.6130 O.3       1 <0>        -0.5574
     25 O3         -1.6558   -4.4700   -1.6514 O.3       1 <0>        -0.5245
     26 O4         -2.6327   -4.3056    1.8765 O.3       1 <0>        -0.5325
     27 O5         -1.2144   -6.7272   -0.4558 O.3       1 <0>        -0.5246
     28 O6         -2.2454   -8.8715    1.7315 O.3       1 <0>        -0.4944
     29 C18         0.7536   -2.0247    1.1527 C.2       1 <0>         0.3844
     30 O7          1.7480   -2.6490    1.4587 O.2       1 <0>        -0.4226
     31 C19         0.7352   -0.5175    1.2507 C.3       1 <0>        -0.1574
     32 H6          1.0039    1.9031    0.0027 H         1 <0>         0.0619
     33 H7         -0.5459    1.8868   -0.8726 H         1 <0>         0.0608
     34 H8         -0.5289    1.8773    0.9072 H         1 <0>         0.0592
     35 H9         -1.9550   -0.0969    0.8690 H         1 <0>         0.0881
     36 H10        -1.9272   -0.2423   -0.8987 H         1 <0>         0.0819
     37 H11         1.2413   -5.9092    4.2347 H         1 <0>         0.1392
     38 H12         0.7951   -8.2042    4.9992 H         1 <0>         0.1377
     39 H13        -0.8504   -9.5986    3.8169 H         1 <0>         0.1367
     40 H14        -3.2577   -1.1880   -1.5775 H         1 <0>         0.3845
     41 H15        -1.9964   -4.1508   -2.4983 H         1 <0>         0.3854
     42 H16        -3.5506   -4.6092    1.8946 H         1 <0>         0.3828
     43 H17        -1.1648   -7.6892   -0.5411 H         1 <0>         0.3838
     44 H18        -3.1457   -8.7967    2.0762 H         1 <0>         0.3922
     45 H19         1.7536   -0.1295    1.2713 H         1 <0>         0.0954
     46 H20         0.2001   -0.2117    2.1497 H         1 <0>         0.0996
@<TRIPOS>BOND
     1    1    2 1
     2    1   32 1
     3    1   33 1
     4    1   34 1
     5    2    3 1
     6    2   31 1
     7    2    4 1
     8    4    5 1
     9    4   35 1
    10    4   36 1
    11    5   22 1
    12    5    6 2
    13    6    7 1
    14    6   29 1
    15    7    8 1
    16    7   19 1
    17    7    9 1
    18    9   10 2
    19    9   11 1
    20   11   16 ar
    21   11   12 ar
    22   12   13 ar
    23   12   37 1
    24   13   14 ar
    25   13   38 1
    26   14   15 ar
    27   14   39 1
    28   15   16 ar
    29   15   28 1
    30   16   17 1
    31   17   18 1
    32   17   19 1
    33   17   27 1
    34   19   20 1
    35   19   26 1
    36   20   21 1
    37   20   22 1
    38   20   25 1
    39   22   23 1
    40   22   24 1
    41   24   40 1
    42   25   41 1
    43   26   42 1
    44   27   43 1
    45   28   44 1
    46   29   30 2
    47   29   31 1
    48   31   45 1
    49   31   46 1
@<TRIPOS>MOLECULE
ZINC61594041
   36    37     0     0     0
SMALL
USER_CHARGES

@<TRIPOS>ATOM
      1 C1         -2.0497    0.9682   -0.8230 C.3       1 <0>        -0.1492
      2 C2         -2.8303   -0.0783   -0.0253 C.3       1 <0>        -0.1437
      3 C3         -2.8672    0.3276    1.4494 C.3       1 <0>         0.1228
      4 N1         -3.6146   -0.6745    2.2132 N.am      1 <0>        -0.5316
      5 C4         -4.9426   -0.6618    2.4437 C.2       1 <0>         0.6523
      6 O1         -5.7325    0.1807    2.0558 O.2       1 <0>        -0.5467
      7 N2         -5.2385   -1.7517    3.1816 N.am      1 <0>        -0.5428
      8 H1         -6.1181   -2.0080    3.5002 H         1 <0>         0.4573
      9 N3         -4.0411   -2.4462    3.4029 N.2       1 <0>        -0.2639
     10 C5         -3.0816   -1.7932    2.8132 C.2       1 <0>         0.2250
     11 S1         -1.3829   -2.2608    2.7906 S.3       1 <0>         0.1374
     12 C6         -1.3145   -3.6696    3.8466 C.ar      1 <0>        -0.1852
     13 C7         -1.2012   -4.9412    3.3037 C.ar      1 <0>        -0.0212
     14 C8         -1.1478   -6.0450    4.1342 C.ar      1 <0>        -0.0952
     15 C9         -1.2074   -5.8864    5.5066 C.ar      1 <0>        -0.5919
     16 C10        -1.3204   -4.6228    6.0565 C.ar      1 <0>        -0.0994
     17 C11        -1.3685   -3.5093    5.2315 C.ar      1 <0>         0.2651
     18 N4         -1.4770   -2.2289    5.7861 N.pl3     1 <0>        -0.8589
     19 S2         -1.1398   -7.2989    6.5577 S.o2      1 <0>         2.7000
     20 O2         -1.7627   -6.9262    7.7794 O.2       1 <0>        -0.9581
     21 O3         -1.5838   -8.4038    5.7823 O.2       1 <0>        -0.9526
     22 N5          0.4557   -7.5750    6.9049 N.pl3     1 <0>        -1.2459
     23 H2         -2.0234    0.6790   -1.8736 H         1 <0>         0.0644
     24 H3         -2.5376    1.9379   -0.7251 H         1 <0>         0.0599
     25 H4         -1.0318    1.0332   -0.4385 H         1 <0>         0.0604
     26 H5         -3.8482   -0.1433   -0.4098 H         1 <0>         0.0716
     27 H6         -2.3424   -1.0481   -0.1231 H         1 <0>         0.0723
     28 H7         -1.8493    0.3926    1.8339 H         1 <0>         0.0970
     29 H8         -3.3551    1.2973    1.5473 H         1 <0>         0.1023
     30 H9         -1.1551   -5.0689    2.2323 H         1 <0>         0.1463
     31 H10        -1.0595   -7.0342    3.7099 H         1 <0>         0.1496
     32 H11        -1.3671   -4.5027    7.1288 H         1 <0>         0.1491
     33 H12        -1.5149   -1.4514    5.2075 H         1 <0>         0.4043
     34 H13        -1.5144   -2.1191    6.7491 H         1 <0>         0.4074
     35 H14         0.7051   -7.9796    7.7505 H         1 <0>         0.4234
     36 H15         1.1409   -7.3320    6.2627 H         1 <0>         0.4184
@<TRIPOS>BOND
     1    1    2 1
     2    1   23 1
     3    1   24 1
     4    1   25 1
     5    2    3 1
     6    2   26 1
     7    2   27 1
     8    3    4 1
     9    3   28 1
    10    3   29 1
    11    4   10 1
    12    4    5 am
    13    5    6 2
    14    5    7 am
    15    7    8 1
    16    7    9 1
    17    9   10 2
    18   10   11 1
    19   11   12 1
    20   12   17 ar
    21   12   13 ar
    22   13   14 ar
    23   13   30 1
    24   14   15 ar
    25   14   31 1
    26   15   16 ar
    27   15   19 1
    28   16   17 ar
    29   16   32 1
    30   17   18 1
    31   18   33 1
    32   18   34 1
    33   19   20 2
    34   19   21 2
    35   19   22 1
    36   22   35 1
    37   22   36 1
@<TRIPOS>MOLECULE
ZINC02049092
   52    55     0     0     0
SMALL
USER_CHARGES
2-[6-(5-carboxy-1,3-dioxo-isoindolin-2-yl)hexyl]-1,3-dioxo-isoindoline-5-carboxylic acid
@<TRIPOS>ATOM
      1 C1         -0.7825    6.0335    0.0389 C.ar      1 <0>        -0.0576
      2 C2         -1.4603    4.8262    0.0392 C.ar      1 <0>        -0.0565
      3 C3         -0.7512    3.6357    0.0273 C.ar      1 <0>        -0.1538
      4 C4          0.6588    3.6532    0.0145 C.ar      1 <0>        -0.1626
      5 C5          1.3351    4.8607    0.0137 C.ar      1 <0>        -0.0079
      6 C6          0.6122    6.0576    0.0258 C.ar      1 <0>        -0.0891
      7 C7          1.3279    7.3520    0.0250 C.2       1 <0>         0.4893
      8 O1          2.5421    7.3745    0.0140 O.co2     1 <0>        -0.6185
      9 C8          1.0810    2.2365    0.0037 C.2       1 <0>         0.5793
     10 O2          2.2286    1.8393   -0.0087 O.2       1 <0>        -0.4669
     11 N1         -0.0178    1.4608    0.0101 N.am      1 <0>        -0.5791
     12 C9         -1.1373    2.2064    0.0189 C.2       1 <0>         0.5807
     13 O3         -2.2738    1.7789    0.0216 O.2       1 <0>        -0.4742
     14 C10         0.0021   -0.0041    0.0020 C.3       1 <0>         0.1114
     15 C11         0.0228   -0.5218    1.4416 C.3       1 <0>        -0.1368
     16 C12         0.0435   -2.0516    1.4332 C.3       1 <0>        -0.1139
     17 C13         0.0642   -2.5693    2.8728 C.3       1 <0>        -0.1139
     18 C14         0.0849   -4.0991    2.8644 C.3       1 <0>        -0.1368
     19 C15         0.1056   -4.6168    4.3040 C.3       1 <0>         0.1114
     20 N2          0.1255   -6.0817    4.2960 N.am      1 <0>        -0.5792
     21 C16        -0.9733   -6.8575    4.3081 C.2       1 <0>         0.5807
     22 O4         -2.1208   -6.4611    4.3271 O.2       1 <0>        -0.4742
     23 C17        -0.5486   -8.2758    4.2920 C.ar      1 <0>        -0.1538
     24 C18        -1.2252   -9.4851    4.2933 C.ar      1 <0>        -0.0564
     25 C19        -0.5148  -10.6735    4.2804 C.ar      1 <0>        -0.0576
     26 C20         0.8800  -10.6597    4.2671 C.ar      1 <0>        -0.0891
     27 C21         1.5701   -9.4435    4.2658 C.ar      1 <0>        -0.0079
     28 C22         0.8613   -8.2549    4.2782 C.ar      1 <0>        -0.1626
     29 C23         1.2449   -6.8272    4.2813 C.2       1 <0>         0.5793
     30 O5          2.3813   -6.3989    4.2721 O.2       1 <0>        -0.4670
     31 C24         1.6305  -11.9341    4.2540 C.2       1 <0>         0.4893
     32 O6          2.8449  -11.9235    4.2420 O.co2     1 <0>        -0.6186
     33 H1         -1.3361    6.9608    0.0485 H         1 <0>         0.1506
     34 H2         -2.5402    4.8123    0.0494 H         1 <0>         0.1373
     35 H3          2.4149    4.8785    0.0036 H         1 <0>         0.1460
     36 H4         -0.8878   -0.3767   -0.5053 H         1 <0>         0.0944
     37 H5          0.8920   -0.3525   -0.5222 H         1 <0>         0.0950
     38 H6          0.9126   -0.1491    1.9490 H         1 <0>         0.0712
     39 H7         -0.8671   -0.1733    1.9659 H         1 <0>         0.0701
     40 H8         -0.8463   -2.4242    0.9258 H         1 <0>         0.0671
     41 H9          0.9334   -2.4000    0.9090 H         1 <0>         0.0680
     42 H10         0.9540   -2.1966    3.3802 H         1 <0>         0.0680
     43 H11        -0.8257   -2.2209    3.3970 H         1 <0>         0.0671
     44 H12        -0.8049   -4.4718    2.3570 H         1 <0>         0.0701
     45 H13         0.9748   -4.4475    2.3402 H         1 <0>         0.0712
     46 H14         0.9955   -4.2442    4.8114 H         1 <0>         0.0950
     47 H15        -0.7842   -4.2684    4.8282 H         1 <0>         0.0944
     48 H16        -2.3050   -9.5006    4.3035 H         1 <0>         0.1373
     49 H17        -1.0430  -11.6155    4.2811 H         1 <0>         0.1506
     50 H18         2.6500   -9.4319    4.2555 H         1 <0>         0.1460
     51 O7          0.6330    8.5058    0.0366 O.co2     1 <0>        -0.7434
     52 O8          0.9672  -13.1064    4.2553 O.co2     1 <0>        -0.7434
@<TRIPOS>BOND
     1    1    6 ar
     2    1    2 ar
     3    1   33 1
     4    2    3 ar
     5    2   34 1
     6    3   12 1
     7    3    4 ar
     8    4    5 ar
     9    4    9 1
    10    5    6 ar
    11    5   35 1
    12    6    7 1
    13    7    8 2
    14    7   51 1
    15    9   10 2
    16    9   11 am
    17   11   12 am
    18   11   14 1
    19   12   13 2
    20   14   15 1
    21   14   36 1
    22   14   37 1
    23   15   16 1
    24   15   38 1
    25   15   39 1
    26   16   17 1
    27   16   40 1
    28   16   41 1
    29   17   18 1
    30   17   42 1
    31   17   43 1
    32   18   19 1
    33   18   44 1
    34   18   45 1
    35   19   20 1
    36   19   46 1
    37   19   47 1
    38   20   29 am
    39   20   21 am
    40   21   22 2
    41   21   23 1
    42   23   28 ar
    43   23   24 ar
    44   24   25 ar
    45   24   48 1
    46   25   26 ar
    47   25   49 1
    48   26   27 ar
    49   26   31 1
    50   27   28 ar
    51   27   50 1
    52   28   29 1
    53   29   30 2
    54   31   32 2
    55   31   52 1
@<TRIPOS>MOLECULE
ZINC19907660
   46    49     0     0     0
SMALL
USER_CHARGES
4-[5-[(Z)-[1-(4-methoxyphenyl)-4,6-dioxo-2-thioxo-hexahydropyrimidin-5-ylidene]methyl]-2-furyl]benzoic acid
@<TRIPOS>ATOM
      1 C1          6.3793   -0.6919    2.8175 C.3       1 <0>         0.0247
      2 O1          5.1759   -0.5933    3.5817 O.3       1 <0>        -0.3197
      3 C2          4.1323    0.0627    3.0081 C.ar      1 <0>         0.1277
      4 C3          2.9344    0.1949    3.6951 C.ar      1 <0>        -0.1472
      5 C4          1.8742    0.8611    3.1130 C.ar      1 <0>        -0.0576
      6 C5          2.0073    1.3988    1.8399 C.ar      1 <0>         0.1148
      7 C6          3.2046    1.2613    1.1506 C.ar      1 <0>        -0.0238
      8 C7          4.2661    0.6002    1.7361 C.ar      1 <0>        -0.1998
      9 N1          0.9309    2.0756    1.2482 N.am      1 <0>        -0.5034
     10 C8         -0.1809    1.3858    0.9199 C.2       1 <0>         0.5473
     11 O2         -0.2589    0.1896    1.1298 O.2       1 <0>        -0.4759
     12 C9         -1.2958    2.1184    0.2949 C.2       1 <0>        -0.2685
     13 C10        -2.4707    1.4734   -0.0757 C.2       1 <0>         0.0792
     14 C11        -2.5471    0.0727   -0.0292 C.2       1 <0>        -0.0259
     15 C12        -3.6359   -0.6698    0.4087 C.2       1 <0>        -0.1495
     16 C13        -3.2832   -2.0122    0.2854 C.2       1 <0>        -0.2184
     17 C14        -1.9996   -2.0481   -0.2202 C.2       1 <0>         0.0853
     18 O3         -1.5768   -0.7863   -0.4079 O.3       1 <0>        -0.1192
     19 C15        -1.2234   -3.2679   -0.5114 C.ar      1 <0>        -0.0386
     20 C16        -1.7822   -4.5269   -0.2696 C.ar      1 <0>        -0.1071
     21 C17        -1.0622   -5.6608   -0.5454 C.ar      1 <0>        -0.0814
     22 C18         0.2345   -5.5582   -1.0573 C.ar      1 <0>        -0.1005
     23 C19         0.7954   -4.2999   -1.2942 C.ar      1 <0>        -0.0875
     24 C20         0.0739   -3.1657   -1.0240 C.ar      1 <0>        -0.1024
     25 C21         1.0118   -6.7793   -1.3484 C.2       1 <0>         0.4897
     26 O4          2.1385   -6.6904   -1.7936 O.co2     1 <0>        -0.6292
     27 O5          0.4713   -7.9923   -1.1201 O.co2     1 <0>        -0.7561
     28 C22        -1.1133    3.5654    0.0834 C.2       1 <0>         0.5341
     29 O6         -1.9913    4.2384   -0.4235 O.3       1 <0>        -0.5232
     30 N2          0.0552    4.1227    0.4624 N.2       1 <0>        -0.6268
     31 C23         1.0304    3.3930    1.0222 C.2       1 <0>         0.5475
     32 S1          2.4797    4.1856    1.4718 S.2       1 <0>        -0.6925
     33 H1          7.1364   -1.2424    3.3952 H         1 <0>         0.0956
     34 H2          6.7534    0.3174    2.5908 H         1 <0>         0.0551
     35 H3          6.1744   -1.2266    1.8783 H         1 <0>         0.0566
     36 H4          2.8310   -0.2231    4.6856 H         1 <0>         0.1298
     37 H5          0.9418    0.9642    3.6481 H         1 <0>         0.1223
     38 H6          3.3071    1.6751    0.1583 H         1 <0>         0.1251
     39 H7          5.1989    0.4970    1.2017 H         1 <0>         0.1289
     40 H8         -3.3403    2.0610   -0.4053 H         1 <0>         0.1736
     41 H9         -4.5752   -0.2816    0.7741 H         1 <0>         0.1536
     42 H10        -3.8981   -2.8635    0.5374 H         1 <0>         0.1520
     43 H11        -2.7824   -4.6062    0.1301 H         1 <0>         0.1225
     44 H12        -1.4953   -6.6331   -0.3628 H         1 <0>         0.1359
     45 H13         1.7972   -4.2211   -1.6897 H         1 <0>         0.1307
     46 H14         0.5071   -2.1936   -1.2074 H         1 <0>         0.1224
@<TRIPOS>BOND
     1    1    2 1
     2    1   33 1
     3    1   34 1
     4    1   35 1
     5    2    3 1
     6    3    8 ar
     7    3    4 ar
     8    4    5 ar
     9    4   36 1
    10    5    6 ar
    11    5   37 1
    12    6    7 ar
    13    6    9 1
    14    7    8 ar
    15    7   38 1
    16    8   39 1
    17    9   31 1
    18    9   10 am
    19   10   11 2
    20   10   12 1
    21   12   13 2
    22   12   28 1
    23   13   14 1
    24   13   40 1
    25   14   18 1
    26   14   15 2
    27   15   16 1
    28   15   41 1
    29   16   17 2
    30   16   42 1
    31   17   18 1
    32   17   19 1
    33   19   24 ar
    34   19   20 ar
    35   20   21 ar
    36   20   43 1
    37   21   22 ar
    38   21   44 1
    39   22   23 ar
    40   22   25 1
    41   23   24 ar
    42   23   45 1
    43   24   46 1
    44   25   26 2
    45   25   27 1
    46   28   29 1
    47   28   30 2
    48   30   31 1
    49   31   32 2
@<TRIPOS>MOLECULE
ZINC13092726
   38    39     0     0     0
SMALL
USER_CHARGES

@<TRIPOS>ATOM
      1 C1         -0.0260    1.5085   -0.0054 C.3       1 <0>        -0.1422
      2 C2          0.0015   -0.0212   -0.0040 C.3       1 <0>        -0.1062
      3 H1          0.5145   -0.3762   -0.8979 H         1 <0>         0.1223
      4 C3          0.7309   -0.5094    1.2210 C.2       1 <0>         0.5458
      5 O1          0.1053   -0.8940    2.1863 O.2       1 <0>        -0.4935
      6 N1          2.0785   -0.5187    1.2440 N.am      1 <0>        -0.6674
      7 C4          2.7563   -0.8829    2.4138 C.ar      1 <0>         0.1889
      8 C5          2.2272   -1.8573    3.2493 C.ar      1 <0>        -0.0944
      9 C6          2.8982   -2.2150    4.4035 C.ar      1 <0>        -0.0053
     10 C7          4.0975   -1.6021    4.7269 C.ar      1 <0>        -0.0431
     11 C8          4.6267   -0.6308    3.8961 C.ar      1 <0>        -0.0703
     12 C9          3.9624   -0.2736    2.7376 C.ar      1 <0>        -0.0565
     13 Cl1         4.6311    0.9398    1.6916 Cl        1 <0>        -0.0396
     14 Cl2         4.9376   -2.0531    6.1776 Cl        1 <0>        -0.0431
     15 Cl3         2.2371   -3.4330    5.4490 Cl        1 <0>        -0.0349
     16 S1         -1.6975   -0.6565    0.0106 S.3       1 <0>         0.0251
     17 C10        -2.3626   -0.1307   -1.5340 C.ar      1 <0>         0.2525
     18 N2         -3.6156   -0.4373   -1.8474 N.ar      1 <0>        -0.5763
     19 C11        -4.1117   -0.0381   -3.0135 C.ar      1 <0>         0.4215
     20 O2         -5.3876   -0.3360   -3.3600 O.3       1 <0>        -0.6577
     21 C12        -3.2932    0.6945   -3.8742 C.ar      1 <0>        -0.0371
     22 N3         -2.0554    0.9690   -3.5079 N.ar      1 <0>        -0.2057
     23 N4         -1.6066    0.5722   -2.3688 N.ar      1 <0>        -0.4072
     24 C13        -3.8164    1.1661   -5.2065 C.3       1 <0>        -0.0108
     25 C14        -4.4468    2.5509   -5.0456 C.3       1 <0>        -0.1652
     26 C15        -4.9700    3.0225   -6.3779 C.2       1 <0>         0.4975
     27 O3         -4.8498    2.3164   -7.3645 O.co2     1 <0>        -0.7014
     28 O4         -5.5134    4.1101   -6.4690 O.co2     1 <0>        -0.7187
     29 H2          0.9949    1.8903   -0.0141 H         1 <0>         0.0598
     30 H3         -0.5536    1.8617   -0.8914 H         1 <0>         0.1031
     31 H4         -0.5390    1.8635    0.8885 H         1 <0>         0.0650
     32 H5          2.5787   -0.2730    0.4501 H         1 <0>         0.4210
     33 H6          1.2920   -2.3352    2.9977 H         1 <0>         0.1731
     34 H7          5.5620   -0.1543    4.1504 H         1 <0>         0.1561
     35 H8         -2.9947    1.2216   -5.9205 H         1 <0>         0.0617
     36 H9         -4.5675    0.4651   -5.5706 H         1 <0>         0.0769
     37 H10        -5.2685    2.4954   -4.3316 H         1 <0>         0.0561
     38 H11        -3.6957    3.2519   -4.6814 H         1 <0>         0.0498
@<TRIPOS>BOND
     1    1    2 1
     2    1   29 1
     3    1   30 1
     4    1   31 1
     5    2    3 1
     6    2    4 1
     7    2   16 1
     8    4    5 2
     9    4    6 am
    10    6    7 1
    11    6   32 1
    12    7   12 ar
    13    7    8 ar
    14    8    9 ar
    15    8   33 1
    16    9   10 ar
    17    9   15 1
    18   10   11 ar
    19   10   14 1
    20   11   12 ar
    21   11   34 1
    22   12   13 1
    23   16   17 1
    24   17   18 ar
    25   17   23 ar
    26   18   19 ar
    27   19   20 1
    28   19   21 ar
    29   21   22 ar
    30   21   24 1
    31   22   23 ar
    32   24   25 1
    33   24   35 1
    34   24   36 1
    35   25   26 1
    36   25   37 1
    37   25   38 1
    38   26   27 2
    39   26   28 1
@<TRIPOS>MOLECULE
ZINC36351109
   46    49     0     0     0
SMALL
USER_CHARGES

@<TRIPOS>ATOM
      1 C1         -0.0184    1.5028    0.0103 C.3       1 <0>        -0.0424
      2 C2          0.0021   -0.0041    0.0020 C.2       1 <0>         0.0240
      3 C3         -1.1020   -0.8059    0.0028 C.2       1 <0>        -0.2290
      4 C4         -0.5886   -2.1913   -0.0081 C.ar      1 <0>        -0.0117
      5 C5         -1.2047   -3.4509   -0.0121 C.ar      1 <0>        -0.2391
      6 C6         -0.4568   -4.5907   -0.0224 C.ar      1 <0>         0.2692
      7 C7          0.9557   -4.5097   -0.0292 C.ar      1 <0>        -0.0547
      8 C8          1.7437   -5.6706   -0.0405 C.ar      1 <0>        -0.0425
      9 C9          3.1020   -5.5658   -0.0472 C.ar      1 <0>        -0.1789
     10 C10         3.7239   -4.3200   -0.0429 C.ar      1 <0>        -0.1209
     11 C11         2.9898   -3.1725   -0.0316 C.ar      1 <0>        -0.1299
     12 C12         1.5881   -3.2436   -0.0250 C.ar      1 <0>         0.0188
     13 C13         0.7990   -2.0729   -0.0144 C.ar      1 <0>        -0.0660
     14 O1          1.1038   -0.7594   -0.0130 O.3       1 <0>        -0.1966
     15 N1         -1.0846   -5.8376   -0.0258 N.2       1 <0>        -1.0899
     16 S1         -2.7379   -5.9323   -0.0173 S.o2      1 <0>         2.5996
     17 O2         -3.1680   -5.4124    1.2333 O.2       1 <0>        -1.0072
     18 O3         -3.1816   -5.3988   -1.2573 O.2       1 <0>        -1.0099
     19 C14        -3.1618   -7.6425   -0.0243 C.ar      1 <0>        -0.6469
     20 C15        -3.3288   -8.3073   -1.2254 C.ar      1 <0>         0.0645
     21 C16        -3.6611   -9.6480   -1.2336 C.ar      1 <0>        -0.2362
     22 C17        -3.8269  -10.3278   -0.0354 C.ar      1 <0>         0.2185
     23 C18        -3.6584   -9.6588    1.1679 C.ar      1 <0>        -0.1081
     24 C19        -3.3213   -8.3189    1.1708 C.ar      1 <0>         0.0775
     25 N2         -3.8350  -10.3808    2.4478 N.pl3     1 <0>         0.0484
     26 O4         -3.6880   -9.7972    3.4964 O.2       1 <0>        -0.1736
     27 O5         -4.1263  -11.5541    2.4447 O.3       1 <0>        -0.1515
     28 O6         -4.1543  -11.6467   -0.0409 O.3       1 <0>        -0.2839
     29 C20        -4.3123  -12.2707   -1.3167 C.3       1 <0>         0.0184
     30 C21        -2.5055   -0.3812    0.0128 C.2       1 <0>         0.5468
     31 O7         -2.7842    0.8108    0.0213 O.co2     1 <0>        -0.7053
     32 O8         -3.3984   -1.2186    0.0127 O.co2     1 <0>        -0.6773
     33 H1          1.0042    1.8801    0.0026 H         1 <0>         0.0518
     34 H2         -0.5455    1.8639   -0.8728 H         1 <0>         0.0832
     35 H3         -0.5286    1.8543    0.9071 H         1 <0>         0.0832
     36 H4         -2.2826   -3.5188   -0.0065 H         1 <0>         0.1191
     37 H5          1.2752   -6.6437   -0.0436 H         1 <0>         0.1335
     38 H6          3.7051   -6.4617   -0.0555 H         1 <0>         0.1055
     39 H7          4.8023   -4.2627   -0.0483 H         1 <0>         0.1049
     40 H8          3.4842   -2.2123   -0.0277 H         1 <0>         0.1135
     41 H9         -3.1996   -7.7777   -2.1577 H         1 <0>         0.1603
     42 H10        -3.7921  -10.1666   -2.1718 H         1 <0>         0.1540
     43 H11        -3.1863   -7.7985    2.1074 H         1 <0>         0.1735
     44 H12        -5.1063  -11.7696   -1.8704 H         1 <0>         0.0621
     45 H13        -3.3787  -12.1984   -1.8747 H         1 <0>         0.0630
     46 H14        -4.5725  -13.3201   -1.1782 H         1 <0>         0.1082
@<TRIPOS>BOND
     1    1    2 1
     2    1   33 1
     3    1   34 1
     4    1   35 1
     5    2   14 1
     6    2    3 2
     7    3    4 1
     8    3   30 1
     9    4   13 ar
    10    4    5 ar
    11    5    6 ar
    12    5   36 1
    13    6    7 ar
    14    6   15 1
    15    7   12 ar
    16    7    8 ar
    17    8    9 ar
    18    8   37 1
    19    9   10 ar
    20    9   38 1
    21   10   11 ar
    22   10   39 1
    23   11   12 ar
    24   11   40 1
    25   12   13 ar
    26   13   14 1
    27   15   16 1
    28   16   17 2
    29   16   18 2
    30   16   19 1
    31   19   24 ar
    32   19   20 ar
    33   20   21 ar
    34   20   41 1
    35   21   22 ar
    36   21   42 1
    37   22   23 ar
    38   22   28 1
    39   23   24 ar
    40   23   25 1
    41   24   43 1
    42   25   26 2
    43   25   27 1
    44   28   29 1
    45   29   44 1
    46   29   45 1
    47   29   46 1
    48   30   31 2
    49   30   32 1
@<TRIPOS>MOLECULE
ZINC35450545
   57    60     0     0     0
SMALL
USER_CHARGES

@<TRIPOS>ATOM
      1 C1         -0.0187    1.5258    0.0104 C.3       1 <0>        -0.1552
      2 C2          0.0021   -0.0041    0.0020 C.3       1 <0>        -0.1008
      3 C3         -1.4333   -0.5336    0.0129 C.3       1 <0>        -0.0613
      4 H1         -1.9701   -0.1109    0.8621 H         1 <0>         0.0922
      5 C4         -1.4133   -2.0590    0.1302 C.3       1 <0>        -0.1453
      6 S1         -2.2655   -0.0565   -1.5267 S.3       1 <0>        -0.0762
      7 C5         -3.9257   -0.6017   -1.3005 C.ar      1 <0>         0.3378
      8 N1         -4.2530   -1.1991   -0.1631 N.ar      1 <0>        -0.6305
      9 C6         -5.4979   -1.6263    0.0474 C.ar      1 <0>         0.4572
     10 O1         -5.8330   -2.2369    1.2102 O.3       1 <0>        -0.7050
     11 C7         -6.4388   -1.4330   -0.9441 C.ar      1 <0>        -0.3518
     12 C8         -6.0716   -0.7998   -2.1362 C.ar      1 <0>         0.4050
     13 N2         -4.8030   -0.3954   -2.2701 N.ar      1 <0>        -0.5861
     14 N3         -6.9716   -0.5957   -3.1252 N.2       1 <0>        -0.6094
     15 C9         -8.2290   -0.9485   -3.0895 C.2       1 <0>         0.2988
     16 C10        -8.7827   -1.6006   -1.9689 C.2       1 <0>        -0.4281
     17 C11        -7.8712   -1.8868   -0.7884 C.3       1 <0>         0.1302
     18 H2         -8.2899   -1.3994    0.0921 H         1 <0>         0.0402
     19 C12        -7.8712   -3.3734   -0.5414 C.ar      1 <0>         0.0189
     20 C13        -7.3251   -4.2291   -1.4804 C.ar      1 <0>        -0.0536
     21 C14        -7.3239   -5.5921   -1.2563 C.ar      1 <0>        -0.1570
     22 C15        -7.8707   -6.1023   -0.0877 C.ar      1 <0>         0.1291
     23 C16        -8.4174   -5.2418    0.8529 C.ar      1 <0>        -0.0827
     24 C17        -8.4119   -3.8789    0.6262 C.ar      1 <0>         0.0236
     25 N4         -9.0021   -5.7828    2.1003 N.pl3     1 <0>         0.0544
     26 O2         -9.4784   -5.0323    2.9198 O.2       1 <0>        -0.1865
     27 O3         -9.0032   -6.9752    2.2999 O.3       1 <0>        -0.1782
     28 O4         -7.8711   -7.4430    0.1349 O.3       1 <0>        -0.4820
     29 C18       -10.0710   -1.9676   -1.9194 C.2       1 <0>         0.3089
     30 O5        -10.5392   -2.5879   -0.8171 O.3       1 <0>        -0.6725
     31 C19       -11.0062   -1.7012   -3.0687 C.3       1 <0>        -0.1105
     32 C20       -10.5468   -0.4434   -3.8120 C.3       1 <0>        -0.0564
     33 C21        -9.1048   -0.6467   -4.2841 C.3       1 <0>        -0.0595
     34 C22       -10.6130    0.7610   -2.8708 C.3       1 <0>        -0.1401
     35 C23       -11.4529   -0.2028   -5.0211 C.3       1 <0>        -0.1342
     36 H3          1.0039    1.9031    0.0027 H         1 <0>         0.0479
     37 H4         -0.5459    1.8868   -0.8726 H         1 <0>         0.0669
     38 H5         -0.5289    1.8773    0.9072 H         1 <0>         0.0540
     39 H6          0.5123   -0.3556   -0.8948 H         1 <0>         0.0652
     40 H7          0.5293   -0.3651    0.8851 H         1 <0>         0.0690
     41 H8         -0.8764   -2.4817   -0.7190 H         1 <0>         0.0481
     42 H9         -0.9132   -2.3457    1.0553 H         1 <0>         0.0468
     43 H10        -2.4359   -2.4363    0.1380 H         1 <0>         0.0897
     44 H11        -6.8996   -3.8315   -2.3899 H         1 <0>         0.1250
     45 H12        -6.8979   -6.2601   -1.9903 H         1 <0>         0.1329
     46 H13        -8.8341   -3.2082    1.3599 H         1 <0>         0.1406
     47 H14        -7.0846   -7.7654    0.5961 H         1 <0>         0.3851
     48 H15       -10.9959   -2.5513   -3.7509 H         1 <0>         0.0680
     49 H16       -12.0166   -1.5508   -2.6886 H         1 <0>         0.0656
     50 H17        -8.7514    0.2601   -4.7750 H         1 <0>         0.0744
     51 H18        -9.0647   -1.4805   -4.9850 H         1 <0>         0.0722
     52 H19        -9.9621    0.5885   -2.0136 H         1 <0>         0.0710
     53 H20       -10.2857    1.6552   -3.4014 H         1 <0>         0.0464
     54 H21       -11.6383    0.8974   -2.5269 H         1 <0>         0.0450
     55 H22       -12.4809   -0.0694   -4.6839 H         1 <0>         0.0504
     56 H23       -11.1245    0.6926   -5.5487 H         1 <0>         0.0516
     57 H24       -11.3989   -1.0602   -5.6919 H         1 <0>         0.0510
@<TRIPOS>BOND
     1    1    2 1
     2    1   36 1
     3    1   37 1
     4    1   38 1
     5    2    3 1
     6    2   39 1
     7    2   40 1
     8    3    4 1
     9    3    5 1
    10    3    6 1
    11    5   41 1
    12    5   42 1
    13    5   43 1
    14    6    7 1
    15    7   13 ar
    16    7    8 ar
    17    8    9 ar
    18    9   10 1
    19    9   11 ar
    20   11   17 1
    21   11   12 ar
    22   12   13 ar
    23   12   14 1
    24   14   15 2
    25   15   33 1
    26   15   16 1
    27   16   17 1
    28   16   29 2
    29   17   18 1
    30   17   19 1
    31   19   24 ar
    32   19   20 ar
    33   20   21 ar
    34   20   44 1
    35   21   22 ar
    36   21   45 1
    37   22   23 ar
    38   22   28 1
    39   23   24 ar
    40   23   25 1
    41   24   46 1
    42   25   26 2
    43   25   27 1
    44   28   47 1
    45   29   30 1
    46   29   31 1
    47   31   32 1
    48   31   48 1
    49   31   49 1
    50   32   33 1
    51   32   34 1
    52   32   35 1
    53   33   50 1
    54   33   51 1
    55   34   52 1
    56   34   53 1
    57   34   54 1
    58   35   55 1
    59   35   56 1
    60   35   57 1
@<TRIPOS>MOLECULE
ZINC16934426
   46    48     0     0     0
SMALL
USER_CHARGES

@<TRIPOS>ATOM
      1 C1         -0.1880   -2.8721    1.5914 C.3       1 <0>        -0.1568
      2 C2          0.0037   -1.4321    2.0713 C.3       1 <0>         0.0061
      3 H1          0.5990   -1.4296    2.9844 H         1 <0>         0.0750
      4 C3         -1.3415   -0.8112    2.3470 C.2       1 <0>         0.5075
      5 O1         -2.0422   -1.2480    3.2441 O.co2     1 <0>        -0.6792
      6 O2         -1.7291    0.1279    1.6730 O.co2     1 <0>        -0.6757
      7 O3          0.6779   -0.6790    1.0611 O.3       1 <0>        -0.2723
      8 C4          2.0339   -0.7445    1.0454 C.ar      1 <0>         0.1761
      9 C5          2.7555    0.0543    0.1659 C.ar      1 <0>        -0.1706
     10 C6          4.1307   -0.0075    0.1459 C.ar      1 <0>        -0.0397
     11 C7          4.8025   -0.8773    1.0139 C.ar      1 <0>        -0.1600
     12 C8          4.0703   -1.6797    1.8979 C.ar      1 <0>        -0.0413
     13 C9          2.6957   -1.6058    1.9129 C.ar      1 <0>        -0.2177
     14 C10         6.2690   -0.9481    0.9969 C.2       1 <0>         0.0840
     15 C11         6.9338   -1.5070    2.0404 C.2       1 <0>        -0.2461
     16 C12         8.3696   -1.8169    2.1778 C.2       1 <0>         0.5634
     17 O4          9.1609   -1.5766    1.2848 O.2       1 <0>        -0.5071
     18 N1          8.7576   -2.3674    3.3158 N.am      1 <0>        -0.5427
     19 C13         7.8486   -2.6318    4.3141 C.2       1 <0>         0.3586
     20 N2          8.0643   -3.1714    5.4964 N.2       1 <0>        -0.4482
     21 C14         7.0280   -3.3561    6.3596 C.ar      1 <0>         0.0693
     22 C15         6.0887   -2.3349    6.5553 C.ar      1 <0>        -0.1532
     23 C16         5.0511   -2.5196    7.4200 C.ar      1 <0>        -0.0682
     24 C17         4.9236   -3.7312    8.1129 C.ar      1 <0>        -0.1213
     25 C18         5.8630   -4.7528    7.9167 C.ar      1 <0>        -0.0783
     26 C19         6.8974   -4.5697    7.0479 C.ar      1 <0>        -0.1073
     27 C20         3.8057   -3.9303    9.0453 C.2       1 <0>         0.5174
     28 O5          2.9857   -3.0380    9.2170 O.co2     1 <0>        -0.6804
     29 O6          3.6944   -4.9883    9.6504 O.co2     1 <0>        -0.6891
     30 S1          6.3067   -2.0582    3.6204 S.3       1 <0>        -0.0114
     31 C21        10.1704   -2.6997    3.5154 C.3       1 <0>         0.0736
     32 H2          0.7850   -3.3212    1.3920 H         1 <0>         0.0494
     33 H3         -0.7022   -3.4465    2.3619 H         1 <0>         0.0774
     34 H4         -0.7833   -2.8746    0.6783 H         1 <0>         0.0587
     35 H5          2.2364    0.7245   -0.5033 H         1 <0>         0.1356
     36 H6          4.6903    0.6133   -0.5380 H         1 <0>         0.1323
     37 H7          4.5833   -2.3522    2.5694 H         1 <0>         0.1358
     38 H8          2.1303   -2.2211    2.5970 H         1 <0>         0.1399
     39 H9          6.8188   -0.5555    0.1543 H         1 <0>         0.1518
     40 H10         6.1869   -1.4013    6.0214 H         1 <0>         0.1225
     41 H11         4.3276   -1.7322    7.5714 H         1 <0>         0.1334
     42 H12         5.7649   -5.6865    8.4505 H         1 <0>         0.1331
     43 H13         7.6188   -5.3585    6.8933 H         1 <0>         0.1207
     44 H14        10.7380   -2.4221    2.6272 H         1 <0>         0.0930
     45 H15        10.5539   -2.1533    4.3771 H         1 <0>         0.0756
     46 H16        10.2705   -3.7709    3.6905 H         1 <0>         0.0762
@<TRIPOS>BOND
     1    1    2 1
     2    1   32 1
     3    1   33 1
     4    1   34 1
     5    2    3 1
     6    2    4 1
     7    2    7 1
     8    4    5 2
     9    4    6 1
    10    7    8 1
    11    8   13 ar
    12    8    9 ar
    13    9   10 ar
    14    9   35 1
    15   10   11 ar
    16   10   36 1
    17   11   12 ar
    18   11   14 1
    19   12   13 ar
    20   12   37 1
    21   13   38 1
    22   14   15 2
    23   14   39 1
    24   15   30 1
    25   15   16 1
    26   16   17 2
    27   16   18 am
    28   18   19 1
    29   18   31 1
    30   19   20 2
    31   19   30 1
    32   20   21 1
    33   21   26 ar
    34   21   22 ar
    35   22   23 ar
    36   22   40 1
    37   23   24 ar
    38   23   41 1
    39   24   25 ar
    40   24   27 1
    41   25   26 ar
    42   25   42 1
    43   26   43 1
    44   27   28 2
    45   27   29 1
    46   31   44 1
    47   31   45 1
    48   31   46 1
@<TRIPOS>MOLECULE
ZINC13422441
   58    62     0     0     0
SMALL
USER_CHARGES
4-[2-(1-adamantyl-(2-furylmethyl)amino)-2-oxo-ethoxy]benzene-1,3-dicarboxylic acid
@<TRIPOS>ATOM
      1 C1          1.5494   -3.2328    3.5043 C.2       1 <0>        -0.2063
      2 C2          1.5985   -2.6411    2.2211 C.2       1 <0>        -0.1924
      3 C3          2.4220   -3.3982    1.4741 C.2       1 <0>        -0.0341
      4 O1          2.8671   -4.4146    2.2308 O.3       1 <0>        -0.1726
      5 C4          2.3458   -4.3161    3.4646 C.2       1 <0>        -0.0462
      6 C5          2.7794   -3.1515    0.0311 C.3       1 <0>         0.1811
      7 N1          3.9308   -2.2485   -0.0393 N.am      1 <0>        -0.6099
      8 C6          3.7390   -0.9170   -0.1229 C.2       1 <0>         0.5191
      9 O2          4.6898   -0.1646   -0.0970 O.2       1 <0>        -0.4741
     10 C7          2.3430   -0.3633   -0.2485 C.3       1 <0>         0.0307
     11 O3          2.4009    1.0627   -0.3198 O.3       1 <0>        -0.2445
     12 C8          1.2227    1.7209   -0.4359 C.ar      1 <0>         0.1460
     13 C9          0.0303    1.0087   -0.4806 C.ar      1 <0>        -0.2514
     14 C10        -1.1690    1.6719   -0.6046 C.ar      1 <0>        -0.0403
     15 C11        -1.1980    3.0702   -0.6752 C.ar      1 <0>        -0.1739
     16 C12        -0.0087    3.7947   -0.6313 C.ar      1 <0>        -0.0017
     17 C13         1.2061    3.1230   -0.5116 C.ar      1 <0>        -0.1625
     18 C14         2.4695    3.8816   -0.4639 C.2       1 <0>         0.4939
     19 O4          3.5276    3.2936   -0.3590 O.co2     1 <0>        -0.6146
     20 C15        -2.4873    3.7757   -0.8014 C.2       1 <0>         0.4992
     21 O5         -2.5121    4.9887   -0.8672 O.co2     1 <0>        -0.6341
     22 C16         5.2908   -2.7927   -0.0189 C.3       1 <0>         0.1927
     23 C17         6.0482   -2.3195   -1.2612 C.3       1 <0>        -0.1278
     24 C18         7.4686   -2.8879   -1.2399 C.3       1 <0>        -0.0802
     25 C19         8.1940   -2.4008    0.0160 C.3       1 <0>        -0.1094
     26 C20         7.4366   -2.8739    1.2584 C.3       1 <0>        -0.0809
     27 C21         6.0163   -2.3056    1.2370 C.3       1 <0>        -0.1226
     28 C22         7.3741   -4.4026    1.2661 C.3       1 <0>        -0.1072
     29 C23         6.6487   -4.8898    0.0102 C.3       1 <0>        -0.0786
     30 C24         7.4061   -4.4166   -1.2321 C.3       1 <0>        -0.1085
     31 C25         5.2284   -4.3214   -0.0112 C.3       1 <0>        -0.1177
     32 H1          0.9817   -2.8821    4.3534 H         1 <0>         0.1479
     33 H2          1.0757   -1.7515    1.9022 H         1 <0>         0.1512
     34 H3          2.5314   -4.9940    4.2846 H         1 <0>         0.1992
     35 H4          1.9305   -2.6984   -0.4811 H         1 <0>         0.1116
     36 H5          3.0300   -4.0979   -0.4481 H         1 <0>         0.1016
     37 H6          1.7549   -0.6601    0.6199 H         1 <0>         0.0804
     38 H7          1.8773   -0.7538   -1.1533 H         1 <0>         0.0820
     39 H8          0.0452   -0.0696   -0.4222 H         1 <0>         0.1116
     40 H9         -2.0918    1.1121   -0.6435 H         1 <0>         0.1252
     41 H10        -0.0285    4.8729   -0.6904 H         1 <0>         0.1419
     42 H11         5.5314   -2.6665   -2.1560 H         1 <0>         0.0605
     43 H12         6.0927   -1.2304   -1.2667 H         1 <0>         0.0925
     44 H13         8.0082   -2.5508   -2.1249 H         1 <0>         0.0712
     45 H14         8.2385   -1.3117    0.0105 H         1 <0>         0.0682
     46 H15         9.2059   -2.8057    0.0312 H         1 <0>         0.0585
     47 H16         7.9534   -2.5269    2.1531 H         1 <0>         0.0693
     48 H17         6.0608   -1.2165    1.2315 H         1 <0>         0.0878
     49 H18         5.4767   -2.6427    2.1221 H         1 <0>         0.0576
     50 H19         8.3860   -4.8076    1.2813 H         1 <0>         0.0598
     51 H20         6.8346   -4.7398    2.1511 H         1 <0>         0.0598
     52 H21         6.6042   -5.9789    0.0157 H         1 <0>         0.0701
     53 H22         6.8893   -4.7636   -2.1269 H         1 <0>         0.0606
     54 H23         8.4180   -4.8215   -1.2169 H         1 <0>         0.0603
     55 H24         4.6888   -4.6585    0.8739 H         1 <0>         0.0768
     56 H25         4.7115   -4.6684   -0.9059 H         1 <0>         0.0669
     57 O6          2.4507    5.2270   -0.5367 O.co2     1 <0>        -0.7687
     58 O7         -3.6374    3.0751   -0.8438 O.co2     1 <0>        -0.7750
@<TRIPOS>BOND
     1    1    5 2
     2    1    2 1
     3    1   32 1
     4    2    3 2
     5    2   33 1
     6    3    4 1
     7    3    6 1
     8    4    5 1
     9    5   34 1
    10    6    7 1
    11    6   35 1
    12    6   36 1
    13    7    8 am
    14    7   22 1
    15    8    9 2
    16    8   10 1
    17   10   11 1
    18   10   37 1
    19   10   38 1
    20   11   12 1
    21   12   17 ar
    22   12   13 ar
    23   13   14 ar
    24   13   39 1
    25   14   15 ar
    26   14   40 1
    27   15   16 ar
    28   15   20 1
    29   16   17 ar
    30   16   41 1
    31   17   18 1
    32   18   19 2
    33   18   57 1
    34   20   21 2
    35   20   58 1
    36   22   27 1
    37   22   31 1
    38   22   23 1
    39   23   24 1
    40   23   42 1
    41   23   43 1
    42   24   30 1
    43   24   25 1
    44   24   44 1
    45   25   26 1
    46   25   45 1
    47   25   46 1
    48   26   27 1
    49   26   28 1
    50   26   47 1
    51   27   48 1
    52   27   49 1
    53   28   29 1
    54   28   50 1
    55   28   51 1
    56   29   30 1
    57   29   31 1
    58   29   52 1
    59   30   53 1
    60   30   54 1
    61   31   55 1
    62   31   56 1
@<TRIPOS>MOLECULE
ZINC02342577
   53    57     0     0     0
SMALL
USER_CHARGES
2-[tert-butyl-(carboxymethylsulfanyl)BLAHyl]sulfanylacetic acid
@<TRIPOS>ATOM
      1 C1         -0.0187    1.5258    0.0104 C.3       1 <0>        -0.1504
      2 C2          0.0021   -0.0041    0.0020 C.3       1 <0>        -0.0615
      3 C3          0.7421   -0.5109    1.2415 C.3       1 <0>        -0.1470
      4 C4         -1.4333   -0.5336    0.0129 C.3       1 <0>        -0.1455
      5 C5          0.7182   -0.4975   -1.2568 C.3       1 <0>        -0.0718
      6 H1          0.7262   -1.5975   -1.2558 H         1 <0>         0.0796
      7 C6         -0.0158    0.0147   -2.4994 C.3       1 <0>        -0.1191
      8 C7          0.5388   -0.6651   -3.7509 C.3       1 <0>        -0.0600
      9 C8          2.0566   -0.5081   -3.7677 C.2       1 <0>        -0.0628
     10 C9          2.7295   -0.1938   -2.6387 C.2       1 <0>        -0.1575
     11 S1          4.4294   -0.1201   -3.1336 S.3       1 <0>         0.1995
     12 C10         4.2192   -0.5127   -4.8525 C.2       1 <0>         0.0357
     13 C11         2.8483   -0.6853   -4.9844 C.2       1 <0>        -0.0489
     14 C12         2.3667   -1.0295   -6.3482 C.2       1 <0>         0.2231
     15 N1          1.1746   -1.2600   -6.8408 N.2       1 <0>        -0.2421
     16 N2          1.2667   -1.5202   -8.0981 N.2       1 <0>        -0.2835
     17 C13         2.5223   -1.4708   -8.4810 C.2       1 <0>         0.1936
     18 N3          3.2671   -1.1561   -7.3773 N.pl3     1 <0>        -0.3834
     19 C14         4.6235   -0.9685   -7.1650 C.2       1 <0>         0.3870
     20 N4          5.0863   -0.6504   -5.9125 N.pl3     1 <0>        -0.3752
     21 C15         6.4451   -0.5359   -6.0387 C.2       1 <0>         0.1747
     22 N5          6.7374   -0.7764   -7.2944 N.2       1 <0>        -0.2578
     23 N6          5.6653   -1.0308   -7.9560 N.2       1 <0>        -0.2252
     24 S2          7.5861   -0.1406   -4.7555 S.3       1 <0>         0.0628
     25 C16         9.1996   -0.1510   -5.5843 C.3       1 <0>        -0.1439
     26 C17        10.2795    0.1767   -4.5856 C.2       1 <0>         0.4880
     27 O1          9.9903    0.3949   -3.4329 O.co2     1 <0>        -0.6189
     28 O2         11.5627    0.2262   -4.9765 O.co2     1 <0>        -0.7409
     29 S3          3.1323   -1.7563  -10.1092 S.3       1 <0>         0.0963
     30 C18         1.6428   -2.1202  -11.0784 C.3       1 <0>        -0.1555
     31 C19         2.0282   -2.3871  -12.5106 C.2       1 <0>         0.4861
     32 O3          3.1886   -2.3370  -12.8434 O.co2     1 <0>        -0.6142
     33 O4          1.0823   -2.6806  -13.4167 O.co2     1 <0>        -0.7481
     34 C20         2.1571    0.0388   -1.2744 C.3       1 <0>        -0.0369
     35 H2         -0.5507    1.8901   -0.8808 H         1 <0>         0.0603
     36 H3          1.0133    1.9066    0.0026 H         1 <0>         0.0601
     37 H4         -0.5336    1.8805    0.9154 H         1 <0>         0.0524
     38 H5          0.7570   -1.6108    1.2354 H         1 <0>         0.0557
     39 H6          0.2272   -0.1562    2.1465 H         1 <0>         0.0533
     40 H7          1.7741   -0.1301    1.2337 H         1 <0>         0.0593
     41 H8         -1.4184   -1.6335    0.0069 H         1 <0>         0.0553
     42 H9         -1.9653   -0.1692   -0.8783 H         1 <0>         0.0611
     43 H10        -1.9481   -0.1788    0.9179 H         1 <0>         0.0527
     44 H11        -1.0888   -0.2107   -2.4103 H         1 <0>         0.0770
     45 H12         0.1245    1.1023   -2.5859 H         1 <0>         0.0694
     46 H13         0.2757   -1.7331   -3.7351 H         1 <0>         0.0827
     47 H14         0.1065   -0.1942   -4.6461 H         1 <0>         0.0901
     48 H15         9.3857   -1.1472   -6.0119 H         1 <0>         0.1053
     49 H16         9.2037    0.5997   -6.3883 H         1 <0>         0.1053
     50 H17         1.1420   -3.0067  -10.6621 H         1 <0>         0.1004
     51 H18         0.9590   -1.2595  -11.0370 H         1 <0>         0.1004
     52 H19         2.1501    1.1150   -1.0469 H         1 <0>         0.0946
     53 H20         2.7554   -0.4917   -0.5190 H         1 <0>         0.0885
@<TRIPOS>BOND
     1    1    2 1
     2    1   35 1
     3    1   36 1
     4    1   37 1
     5    2    3 1
     6    2    4 1
     7    2    5 1
     8    3   38 1
     9    3   39 1
    10    3   40 1
    11    4   41 1
    12    4   42 1
    13    4   43 1
    14    5    6 1
    15    5   34 1
    16    5    7 1
    17    7    8 1
    18    7   44 1
    19    7   45 1
    20    8    9 1
    21    8   46 1
    22    8   47 1
    23    9   13 1
    24    9   10 2
    25   10   11 1
    26   10   34 1
    27   11   12 1
    28   12   20 1
    29   12   13 2
    30   13   14 1
    31   14   18 1
    32   14   15 2
    33   15   16 1
    34   16   17 2
    35   17   18 1
    36   17   29 1
    37   18   19 1
    38   19   23 2
    39   19   20 1
    40   20   21 1
    41   21   22 2
    42   21   24 1
    43   22   23 1
    44   24   25 1
    45   25   26 1
    46   25   48 1
    47   25   49 1
    48   26   27 2
    49   26   28 1
    50   29   30 1
    51   30   31 1
    52   30   50 1
    53   30   51 1
    54   31   32 2
    55   31   33 1
    56   34   52 1
    57   34   53 1
@<TRIPOS>MOLECULE
ZINC13193779
   48    52     0     0     0
SMALL
USER_CHARGES

@<TRIPOS>ATOM
      1 C1         -0.7851    0.6036    0.8089 C.ar      1 <0>        -0.1312
      2 C2          0.2337    1.4923    0.4700 C.ar      1 <0>        -0.1295
      3 C3          1.5021    1.0523    0.2473 C.ar      1 <0>        -0.1021
      4 C4          1.7926   -0.3181    0.3604 C.ar      1 <0>        -0.0447
      5 C5          3.0903   -0.8099    0.1385 C.ar      1 <0>        -0.1149
      6 C6          3.3345   -2.1434    0.2574 C.ar      1 <0>        -0.0509
      7 C7          2.3158   -3.0321    0.5966 C.ar      1 <0>        -0.0693
      8 C8          1.0473   -2.5920    0.8188 C.ar      1 <0>        -0.1143
      9 C9          0.7568   -1.2217    0.7054 C.ar      1 <0>        -0.0511
     10 C10        -0.5410   -0.7300    0.9273 C.ar      1 <0>        -0.1015
     11 C11         4.7271   -2.6672    0.0182 C.3       1 <0>         0.2591
     12 H1          5.3371   -1.9030   -0.4636 H         1 <0>         0.0745
     13 C12         5.3566   -3.0862    1.3263 C.2       1 <0>        -0.5088
     14 C13         5.6287   -4.4074    1.2228 C.2       1 <0>         0.2782
     15 C14         5.2046   -4.8883   -0.1065 C.2       1 <0>         0.5014
     16 O1          5.3160   -6.0319   -0.5025 O.2       1 <0>        -0.4946
     17 N1          4.6765   -3.8732   -0.8168 N.am      1 <0>        -0.5490
     18 C15         4.1693   -3.9531   -2.1171 C.ar      1 <0>         0.1638
     19 C16         3.6555   -2.8177   -2.7339 C.ar      1 <0>        -0.1647
     20 C17         3.1527   -2.8908   -4.0194 C.ar      1 <0>        -0.1164
     21 C18         3.1565   -4.0913   -4.6999 C.ar      1 <0>        -0.1177
     22 C19         3.6703   -5.2384   -4.0897 C.ar      1 <0>        -0.1112
     23 C20         4.1837   -5.1629   -2.7934 C.ar      1 <0>        -0.1201
     24 C21         3.6753   -6.5237   -4.8145 C.2       1 <0>         0.5222
     25 O2          3.2293   -6.5863   -5.9514 O.co2     1 <0>        -0.6975
     26 O3          4.1255   -7.5263   -4.2782 O.co2     1 <0>        -0.6806
     27 O4          6.2001   -5.1680    2.1861 O.3       1 <0>        -0.6481
     28 C22         5.6216   -2.2260    2.4854 C.2       1 <0>         0.5458
     29 O5          5.0302   -2.4167    3.5336 O.2       1 <0>        -0.4645
     30 C23         6.5976   -1.1378    2.3823 C.2       1 <0>        -0.2200
     31 C24         7.0344   -0.2572    3.3643 C.2       1 <0>        -0.1145
     32 C25         7.9671    0.6671    2.9632 C.2       1 <0>        -0.1793
     33 C26         8.3895    0.6614    1.6731 C.2       1 <0>        -0.2672
     34 S1          7.5396   -0.6036    0.9663 S.3       1 <0>         0.2310
     35 H2         -1.7823    0.9795    0.9845 H         1 <0>         0.1141
     36 H3          0.0131    2.5459    0.3824 H         1 <0>         0.1143
     37 H4          2.2813    1.7525   -0.0153 H         1 <0>         0.1216
     38 H5          3.8895   -0.1331   -0.1254 H         1 <0>         0.1246
     39 H6          2.5363   -4.0857    0.6841 H         1 <0>         0.1202
     40 H7          0.2678   -3.2923    1.0806 H         1 <0>         0.1236
     41 H8         -1.3402   -1.4068    1.1909 H         1 <0>         0.1209
     42 H9          3.6490   -1.8753   -2.2065 H         1 <0>         0.1151
     43 H10         2.7552   -2.0053   -4.4928 H         1 <0>         0.1117
     44 H11         2.7620   -4.1442   -5.7039 H         1 <0>         0.1206
     45 H12         4.5867   -6.0449   -2.3178 H         1 <0>         0.1571
     46 H13         6.6638   -0.2970    4.3779 H         1 <0>         0.1407
     47 H14         8.3590    1.3889    3.6644 H         1 <0>         0.1245
     48 H15         9.1106    1.3176    1.2084 H         1 <0>         0.1785
@<TRIPOS>BOND
     1    1   10 ar
     2    1    2 ar
     3    1   35 1
     4    2    3 ar
     5    2   36 1
     6    3    4 ar
     7    3   37 1
     8    4    9 ar
     9    4    5 ar
    10    5    6 ar
    11    5   38 1
    12    6    7 ar
    13    6   11 1
    14    7    8 ar
    15    7   39 1
    16    8    9 ar
    17    8   40 1
    18    9   10 ar
    19   10   41 1
    20   11   12 1
    21   11   17 1
    22   11   13 1
    23   13   14 2
    24   13   28 1
    25   14   15 1
    26   14   27 1
    27   15   16 2
    28   15   17 am
    29   17   18 1
    30   18   23 ar
    31   18   19 ar
    32   19   20 ar
    33   19   42 1
    34   20   21 ar
    35   20   43 1
    36   21   22 ar
    37   21   44 1
    38   22   23 ar
    39   22   24 1
    40   23   45 1
    41   24   25 2
    42   24   26 1
    43   28   29 2
    44   28   30 1
    45   30   34 1
    46   30   31 2
    47   31   32 1
    48   31   46 1
    49   32   33 2
    50   32   47 1
    51   33   34 1
    52   33   48 1
@<TRIPOS>MOLECULE
ZINC54164327
   45    48     0     0     0
SMALL
USER_CHARGES

@<TRIPOS>ATOM
      1 C1          1.1953    1.1720    0.1117 C.3       1 <0>        -0.0849
      2 C2          0.4788   -0.1523    0.0493 C.ar      1 <0>        -0.1138
      3 C3          0.3834   -0.8277   -1.1529 C.ar      1 <0>        -0.1382
      4 C4         -0.2706   -2.0410   -1.2187 C.ar      1 <0>        -0.1165
      5 C5         -0.8397   -2.5920   -0.0669 C.ar      1 <0>        -0.1322
      6 C6         -0.7437   -1.9107    1.1472 C.ar      1 <0>        -0.0991
      7 C7         -0.0792   -0.6935    1.2032 C.ar      1 <0>         0.1208
      8 N1          0.0245   -0.0103    2.4151 N.2       1 <0>        -0.5451
      9 C8         -0.0577   -0.6919    3.5892 C.2       1 <0>         0.3998
     10 N2         -0.0483   -2.0025    3.7751 N.2       1 <0>        -0.6722
     11 C9         -0.1379   -2.4894    4.9946 C.2       1 <0>         0.5015
     12 O1         -0.1330   -3.6854    5.2150 O.2       1 <0>        -0.5036
     13 C10        -0.2457   -1.4778    6.0939 C.2       1 <0>        -0.1925
     14 C11        -0.3535   -1.6831    7.4732 C.2       1 <0>        -0.0775
     15 C12        -0.3708   -2.9754    7.9840 C.2       1 <0>         0.0666
     16 C13        -0.4843   -3.3501    9.3998 C.2       1 <0>        -0.2158
     17 C14        -0.4598   -4.7081    9.4387 C.2       1 <0>        -0.1532
     18 C15        -0.3362   -5.1706    8.1061 C.2       1 <0>        -0.0551
     19 O2         -0.2921   -4.1195    7.2700 O.3       1 <0>        -0.0600
     20 C16        -0.2741   -6.5317    7.7144 C.ar      1 <0>         0.0163
     21 C17        -0.3411   -7.5522    8.6825 C.ar      1 <0>        -0.0736
     22 C18        -0.2807   -8.8602    8.2936 C.ar      1 <0>        -0.1132
     23 C19        -0.1534   -9.1850    6.9505 C.ar      1 <0>        -0.0778
     24 C20        -0.0859   -8.1879    5.9884 C.ar      1 <0>         0.0124
     25 C21        -0.1507   -6.8731    6.3540 C.ar      1 <0>        -0.0465
     26 N3          0.0504   -8.5500    4.5597 N.pl3     1 <0>        -0.0326
     27 O3          0.1074   -9.8168    4.2040 O.2       1 <0>        -0.1905
     28 O4          0.1147   -7.6054    3.6442 O.3       1 <0>        -0.1177
     29 S1         -0.1956   -0.0293    5.2377 S.3       1 <0>        -0.0307
     30 C22        -1.5400   -3.8891   -0.1347 C.2       1 <0>         0.5214
     31 O5         -1.6232   -4.4841   -1.1999 O.co2     1 <0>        -0.7075
     32 O6         -2.0371   -4.3691    0.8742 O.co2     1 <0>        -0.6788
     33 H1          2.2509    1.0043    0.3253 H         1 <0>         0.0476
     34 H2          1.0952    1.6847   -0.8450 H         1 <0>         0.0426
     35 H3          0.7580    1.7849    0.8999 H         1 <0>         0.0679
     36 H4          0.8219   -0.4039   -2.0442 H         1 <0>         0.1032
     37 H5         -0.3430   -2.5649   -2.1604 H         1 <0>         0.1134
     38 H6         -1.1816   -2.3308    2.0406 H         1 <0>         0.1453
     39 H7         -0.4234   -0.8374    8.1412 H         1 <0>         0.1539
     40 H8         -0.5701   -2.6797   10.2422 H         1 <0>         0.1520
     41 H9         -0.5227   -5.3227   10.3245 H         1 <0>         0.1471
     42 H10        -0.4395   -7.3016    9.7284 H         1 <0>         0.1425
     43 H11        -0.3320   -9.6445    9.0342 H         1 <0>         0.1456
     44 H12        -0.1060  -10.2218    6.6521 H         1 <0>         0.1498
     45 H13        -0.1025   -6.0985    5.6029 H         1 <0>         0.1787
@<TRIPOS>BOND
     1    1    2 1
     2    1   33 1
     3    1   34 1
     4    1   35 1
     5    2    7 ar
     6    2    3 ar
     7    3    4 ar
     8    3   36 1
     9    4    5 ar
    10    4   37 1
    11    5    6 ar
    12    5   30 1
    13    6    7 ar
    14    6   38 1
    15    7    8 1
    16    8    9 1
    17    9   29 1
    18    9   10 2
    19   10   11 1
    20   11   12 2
    21   11   13 1
    22   13   14 2
    23   13   29 1
    24   14   15 1
    25   14   39 1
    26   15   19 1
    27   15   16 2
    28   16   17 1
    29   16   40 1
    30   17   18 2
    31   17   41 1
    32   18   19 1
    33   18   20 1
    34   20   25 ar
    35   20   21 ar
    36   21   22 ar
    37   21   42 1
    38   22   23 ar
    39   22   43 1
    40   23   24 ar
    41   23   44 1
    42   24   25 ar
    43   24   26 1
    44   25   45 1
    45   26   27 2
    46   26   28 1
    47   30   31 2
    48   30   32 1
@<TRIPOS>MOLECULE
ZINC13810175
   45    47     0     0     0
SMALL
USER_CHARGES

@<TRIPOS>ATOM
      1 C1         -0.8278    2.5813   -1.2526 C.3       1 <0>        -0.1454
      2 C2          0.4654    1.9377   -0.7483 C.3       1 <0>        -0.0806
      3 C3          1.0875    1.1262   -1.8553 C.ar      1 <0>        -0.0902
      4 C4          0.7497   -0.2060   -2.0078 C.ar      1 <0>        -0.1108
      5 C5          1.3181   -0.9524   -3.0214 C.ar      1 <0>        -0.0928
      6 C6          2.2293   -0.3637   -3.8880 C.ar      1 <0>         0.1507
      7 C7          2.5661    0.9743   -3.7326 C.ar      1 <0>        -0.0986
      8 C8          1.9907    1.7167   -2.7200 C.ar      1 <0>        -0.1098
      9 N1          2.8080   -1.1184   -4.9170 N.am      1 <0>        -0.5480
     10 C9          4.1218   -1.4248   -4.8576 C.2       1 <0>         0.5549
     11 O1          4.8118   -1.0565   -3.9254 O.2       1 <0>        -0.4927
     12 C10         4.6928   -2.2219   -5.9613 C.2       1 <0>        -0.2389
     13 C11         6.0313   -2.5805   -5.9787 C.2       1 <0>         0.0618
     14 C12         6.8609   -2.3650   -4.7953 C.ar      1 <0>        -0.0910
     15 C13         6.3864   -2.7314   -3.5255 C.ar      1 <0>         0.0013
     16 C14         7.1647   -2.5289   -2.4218 C.ar      1 <0>        -0.0638
     17 C15         8.4293   -1.9596   -2.5494 C.ar      1 <0>         0.1624
     18 C16         8.9105   -1.5923   -3.8033 C.ar      1 <0>        -0.1232
     19 C17         8.1381   -1.7960   -4.9238 C.ar      1 <0>        -0.0462
     20 Br1        10.6286   -0.8194   -3.9671 Br        1 <0>        -0.0329
     21 O2          9.1953   -1.7618   -1.4474 O.3       1 <0>        -0.2906
     22 C18        10.0687   -2.8262   -1.0649 C.3       1 <0>         0.0083
     23 C19        10.8337   -2.4286    0.1711 C.2       1 <0>         0.5067
     24 O3         10.6481   -1.3351    0.6775 O.co2     1 <0>        -0.6686
     25 O4         11.6382   -3.2004    0.6647 O.co2     1 <0>        -0.6954
     26 Cl1         6.5750   -2.9825   -0.8532 Cl        1 <0>        -0.0504
     27 C20         3.7761   -2.6189   -7.0417 C.2       1 <0>         0.4999
     28 O5          4.2169   -3.3488   -8.0877 O.3       1 <0>        -0.6371
     29 N2          2.5107   -2.2443   -6.9638 N.2       1 <0>        -0.6637
     30 C21         2.0469   -1.5291   -5.9418 C.2       1 <0>         0.6698
     31 O6          0.8668   -1.2270   -5.9394 O.2       1 <0>        -0.5656
     32 H1         -0.6042    3.2316   -2.0983 H         1 <0>         0.0552
     33 H2         -1.5227    1.8025   -1.5668 H         1 <0>         0.0556
     34 H3         -1.2777    3.1683   -0.4519 H         1 <0>         0.0525
     35 H4          1.1603    2.7165   -0.4341 H         1 <0>         0.0695
     36 H5          0.2419    1.2875    0.0974 H         1 <0>         0.0692
     37 H6          0.0409   -0.6634   -1.3335 H         1 <0>         0.1215
     38 H7          1.0544   -1.9930   -3.1396 H         1 <0>         0.1208
     39 H8          3.2746    1.4350   -4.4051 H         1 <0>         0.1192
     40 H9          2.2492    2.7586   -2.6012 H         1 <0>         0.1216
     41 H10         6.4613   -3.0192   -6.8670 H         1 <0>         0.1584
     42 H11         5.4062   -3.1728   -3.4218 H         1 <0>         0.1330
     43 H12         8.5113   -1.5158   -5.8978 H         1 <0>         0.1419
     44 H13         9.4819   -3.7208   -0.8569 H         1 <0>         0.0504
     45 H14        10.7685   -3.0309   -1.8751 H         1 <0>         0.0520
@<TRIPOS>BOND
     1    1    2 1
     2    1   32 1
     3    1   33 1
     4    1   34 1
     5    2    3 1
     6    2   35 1
     7    2   36 1
     8    3    8 ar
     9    3    4 ar
    10    4    5 ar
    11    4   37 1
    12    5    6 ar
    13    5   38 1
    14    6    7 ar
    15    6    9 1
    16    7    8 ar
    17    7   39 1
    18    8   40 1
    19    9   30 am
    20    9   10 am
    21   10   11 2
    22   10   12 1
    23   12   13 2
    24   12   27 1
    25   13   14 1
    26   13   41 1
    27   14   19 ar
    28   14   15 ar
    29   15   16 ar
    30   15   42 1
    31   16   17 ar
    32   16   26 1
    33   17   18 ar
    34   17   21 1
    35   18   19 ar
    36   18   20 1
    37   19   43 1
    38   21   22 1
    39   22   23 1
    40   22   44 1
    41   22   45 1
    42   23   24 2
    43   23   25 1
    44   27   28 1
    45   27   29 2
    46   29   30 1
    47   30   31 2
@<TRIPOS>MOLECULE
ZINC19814540
   42    45     0     0     0
SMALL
USER_CHARGES
4-chloro-3-[5-[(E)-[1-(3-chlorophenyl)-4,6-dioxo-2-thioxo-hexahydropyrimidin-5-ylidene]methyl]-2-furyl]benzoic acid
@<TRIPOS>ATOM
      1 C1          9.0613    1.5347    0.3462 C.ar      1 <0>        -0.0992
      2 C2          7.7288    1.8774    0.4695 C.ar      1 <0>        -0.0843
      3 C3          7.1350    2.7034   -0.4755 C.ar      1 <0>         0.1826
      4 C4          7.8814    3.1783   -1.5457 C.ar      1 <0>        -0.0825
      5 C5          9.2156    2.8364   -1.6612 C.ar      1 <0>        -0.0244
      6 C6          9.8043    2.0131   -0.7169 C.ar      1 <0>        -0.1116
      7 Cl1        10.1522    3.4351   -2.9947 Cl        1 <0>        -0.0807
      8 N1          5.7838    3.0524   -0.3525 N.am      1 <0>        -0.5129
      9 C7          4.8477    2.2819   -0.9438 C.2       1 <0>         0.5650
     10 O1          5.1628    1.2927   -1.5790 O.2       1 <0>        -0.5113
     11 C8          3.4346    2.6697   -0.8005 C.2       1 <0>        -0.2776
     12 C9          2.4138    1.9232   -1.3832 C.2       1 <0>         0.0855
     13 C10         1.0762    2.2067   -1.0772 C.2       1 <0>        -0.0215
     14 C11         0.0068    2.1478   -1.9628 C.2       1 <0>        -0.1484
     15 C12        -1.1301    2.5102   -1.2450 C.2       1 <0>        -0.2029
     16 C13        -0.7264    2.7683    0.0496 C.2       1 <0>         0.0824
     17 O2          0.6020    2.5842    0.1301 O.3       1 <0>        -0.0993
     18 C14        -1.6063    3.1834    1.1586 C.ar      1 <0>        -0.0390
     19 C15        -1.5482    2.5193    2.3836 C.ar      1 <0>        -0.0429
     20 C16        -2.3830    2.9182    3.4254 C.ar      1 <0>        -0.1106
     21 C17        -3.2729    3.9803    3.2374 C.ar      1 <0>        -0.0539
     22 C18        -3.3265    4.6341    2.0235 C.ar      1 <0>        -0.1301
     23 C19        -2.4978    4.2487    0.9863 C.ar      1 <0>        -0.0058
     24 Cl2        -2.5680    5.0825   -0.5348 Cl        1 <0>        -0.0733
     25 C20        -2.3278    2.2209    4.7260 C.2       1 <0>         0.4928
     26 O3         -1.5540    1.2986    4.8883 O.co2     1 <0>        -0.6238
     27 O4         -3.1354    2.6076    5.7325 O.co2     1 <0>        -0.7532
     28 C21         3.1481    3.8849   -0.0194 C.2       1 <0>         0.5207
     29 O5          2.0048    4.2708    0.1388 O.3       1 <0>        -0.4823
     30 N2          4.1864    4.5557    0.5206 N.2       1 <0>        -0.6144
     31 C22         5.4508    4.1446    0.3496 C.2       1 <0>         0.5409
     32 S1          6.7060    5.0623    1.0660 S.2       1 <0>        -0.6944
     33 H1          9.5231    0.8920    1.0810 H         1 <0>         0.1343
     34 H2          7.1493    1.5034    1.3006 H         1 <0>         0.1274
     35 H3          7.4211    3.8173   -2.2847 H         1 <0>         0.1290
     36 H4         10.8459    1.7437   -0.8111 H         1 <0>         0.1310
     37 H5          2.6575    1.1109   -2.0838 H         1 <0>         0.1662
     38 H6          0.0499    1.8776   -3.0076 H         1 <0>         0.1539
     39 H7         -2.1378    2.5744   -1.6282 H         1 <0>         0.1512
     40 H8         -0.8595    1.6993    2.5240 H         1 <0>         0.1402
     41 H9         -3.9198    4.2900    4.0448 H         1 <0>         0.1436
     42 H10        -4.0157    5.4540    1.8846 H         1 <0>         0.1338
@<TRIPOS>BOND
     1    1    6 ar
     2    1    2 ar
     3    1   33 1
     4    2    3 ar
     5    2   34 1
     6    3    4 ar
     7    3    8 1
     8    4    5 ar
     9    4   35 1
    10    5    6 ar
    11    5    7 1
    12    6   36 1
    13    8   31 1
    14    8    9 am
    15    9   10 2
    16    9   11 1
    17   11   12 2
    18   11   28 1
    19   12   13 1
    20   12   37 1
    21   13   17 1
    22   13   14 2
    23   14   15 1
    24   14   38 1
    25   15   16 2
    26   15   39 1
    27   16   17 1
    28   16   18 1
    29   18   23 ar
    30   18   19 ar
    31   19   20 ar
    32   19   40 1
    33   20   21 ar
    34   20   25 1
    35   21   22 ar
    36   21   41 1
    37   22   23 ar
    38   22   42 1
    39   23   24 1
    40   25   26 2
    41   25   27 1
    42   28   29 1
    43   28   30 2
    44   30   31 1
    45   31   32 2
@<TRIPOS>MOLECULE
ZINC16909487
   46    48     0     0     0
SMALL
USER_CHARGES
(2R)-2-[3-[(E)-[2-[(2-methoxycarbonylphenyl)amino]-4-oxo-thiazol-5-ylidene]methyl]phenoxy]propanoic acid
@<TRIPOS>ATOM
      1 C1         -1.1420   -0.2932    2.1927 C.3       1 <0>        -0.1568
      2 C2         -1.6793   -0.3801    0.7628 C.3       1 <0>         0.0400
      3 H1         -2.1074    0.5771    0.4303 H         1 <0>         0.0721
      4 C3         -2.7113   -1.4751    0.6796 C.2       1 <0>         0.4757
      5 O1         -2.5027   -2.4514   -0.0010 O.co2     1 <0>        -0.6177
      6 O2         -3.8622   -1.3659    1.3617 O.co2     1 <0>        -0.7589
      7 O3         -0.6043   -0.6696   -0.1332 O.3       1 <0>        -0.2941
      8 C4          0.1239    0.3855   -0.5844 C.ar      1 <0>         0.1280
      9 C5          1.1106    0.1886   -1.5423 C.ar      1 <0>        -0.1502
     10 C6          1.8524    1.2580   -2.0103 C.ar      1 <0>        -0.0922
     11 C7          1.6215    2.5284   -1.5260 C.ar      1 <0>        -0.0907
     12 C8          0.6337    2.7373   -0.5571 C.ar      1 <0>        -0.0257
     13 C9         -0.1145    1.6537   -0.0854 C.ar      1 <0>        -0.1936
     14 C10         0.3831    4.0896   -0.0377 C.2       1 <0>        -0.0021
     15 C11         1.4236    4.9159    0.2319 C.2       1 <0>        -0.2002
     16 C12         2.8802    4.6358    0.2475 C.2       1 <0>         0.5267
     17 O4          3.3260    3.5283   -0.0057 O.2       1 <0>        -0.5089
     18 N1          3.6644    5.6480    0.5453 N.2       1 <0>        -0.7110
     19 C13         3.1936    6.8522    0.8280 C.2       1 <0>         0.4497
     20 S1          1.4258    6.6482    0.6766 S.3       1 <0>        -0.1205
     21 N2          3.8944    7.9840    1.1576 N.2       1 <0>        -0.5438
     22 C14         5.2848    7.9756    1.1236 C.ar      1 <0>         0.2242
     23 C15         5.9708    6.7869    0.9097 C.ar      1 <0>        -0.2043
     24 C16         7.3503    6.7810    0.8765 C.ar      1 <0>        -0.0738
     25 C17         8.0617    7.9570    1.0550 C.ar      1 <0>        -0.1960
     26 C18         7.3991    9.1458    1.2684 C.ar      1 <0>        -0.0540
     27 C19         6.0021    9.1693    1.2995 C.ar      1 <0>        -0.1699
     28 C20         5.2867   10.4383    1.5212 C.2       1 <0>         0.5005
     29 O5          4.0784   10.4401    1.6505 O.2       1 <0>        -0.4734
     30 O6          5.9723   11.5969    1.5806 O.3       1 <0>        -0.3721
     31 C21         5.2024   12.8080    1.8014 C.3       1 <0>         0.0372
     32 H2         -0.3887    0.5061    2.2534 H         1 <0>         0.0537
     33 H3         -0.6816   -1.2529    2.4703 H         1 <0>         0.0596
     34 H4         -1.9695   -0.0704    2.8824 H         1 <0>         0.0756
     35 H5          1.2963   -0.8035   -1.9266 H         1 <0>         0.1237
     36 H6          2.6150    1.0976   -2.7581 H         1 <0>         0.1210
     37 H7          2.2021    3.3612   -1.8943 H         1 <0>         0.1183
     38 H8         -0.8786    1.8071    0.6623 H         1 <0>         0.1297
     39 H9         -0.6487    4.4310    0.1322 H         1 <0>         0.1356
     40 H10         5.4239    5.8663    0.7690 H         1 <0>         0.1878
     41 H11         7.8790    5.8541    0.7098 H         1 <0>         0.1115
     42 H12         9.1413    7.9414    1.0264 H         1 <0>         0.1110
     43 H13         7.9584   10.0593    1.4069 H         1 <0>         0.1219
     44 H14         5.8805   13.6737    1.8281 H         1 <0>         0.0915
     45 H15         4.6665   12.7323    2.7590 H         1 <0>         0.0570
     46 H16         4.4770   12.9354    0.9843 H         1 <0>         0.0575
@<TRIPOS>BOND
     1    1    2 1
     2    1   32 1
     3    1   33 1
     4    1   34 1
     5    2    3 1
     6    2    4 1
     7    2    7 1
     8    4    5 2
     9    4    6 1
    10    7    8 1
    11    8   13 ar
    12    8    9 ar
    13    9   10 ar
    14    9   35 1
    15   10   11 ar
    16   10   36 1
    17   11   12 ar
    18   11   37 1
    19   12   13 ar
    20   12   14 1
    21   13   38 1
    22   14   15 2
    23   14   39 1
    24   15   20 1
    25   15   16 1
    26   16   17 2
    27   16   18 1
    28   18   19 2
    29   19   20 1
    30   19   21 1
    31   21   22 1
    32   22   27 ar
    33   22   23 ar
    34   23   24 ar
    35   23   40 1
    36   24   25 ar
    37   24   41 1
    38   25   26 ar
    39   25   42 1
    40   26   27 ar
    41   26   43 1
    42   27   28 1
    43   28   29 2
    44   28   30 1
    45   30   31 1
    46   31   44 1
    47   31   45 1
    48   31   46 1
@<TRIPOS>MOLECULE
ZINC13275872
   42    45     0     0     0
SMALL
USER_CHARGES

@<TRIPOS>ATOM
      1 C1          0.0577    1.4466    0.2224 C.ar      1 <0>        -0.1164
      2 C2          1.2374    2.1651    0.1607 C.ar      1 <0>        -0.1003
      3 C3          2.4463    1.5024    0.0608 C.ar      1 <0>        -0.0532
      4 C4          2.4763    0.1208    0.0225 C.ar      1 <0>        -0.0576
      5 C5          1.2965   -0.5982    0.0846 C.ar      1 <0>        -0.0835
      6 C6          0.0868    0.0655    0.1846 C.ar      1 <0>        -0.1023
      7 Br1         1.3368   -2.4881    0.0316 Br        1 <0>        -0.0654
      8 C7          3.7317    2.2860   -0.0068 C.3       1 <0>         0.2476
      9 H1          3.5462    3.3314    0.2401 H         1 <0>         0.0782
     10 C8          4.3339    2.1777   -1.3883 C.2       1 <0>        -0.4870
     11 C9          5.5507    1.5968   -1.2395 C.2       1 <0>         0.2964
     12 C10         5.7804    1.3143    0.1938 C.2       1 <0>         0.4950
     13 O1          6.7799    0.7963    0.6509 O.2       1 <0>        -0.4918
     14 N1          4.7188    1.7167    0.9179 N.am      1 <0>        -0.5479
     15 C11         4.5806    1.6114    2.3048 C.ar      1 <0>         0.1620
     16 C12         3.4214    2.0653    2.9245 C.ar      1 <0>        -0.1653
     17 C13         3.2792    1.9636    4.2956 C.ar      1 <0>        -0.1167
     18 C14         4.2867    1.4109    5.0597 C.ar      1 <0>        -0.1171
     19 C15         5.4555    0.9511    4.4475 C.ar      1 <0>        -0.1105
     20 C16         5.5966    1.0492    3.0618 C.ar      1 <0>        -0.1200
     21 C17         6.5348    0.3600    5.2618 C.2       1 <0>         0.5222
     22 O2          6.4072    0.2718    6.4748 O.co2     1 <0>        -0.6971
     23 O3          7.5568   -0.0416    4.7237 O.co2     1 <0>        -0.6802
     24 O4          6.4152    1.3205   -2.2412 O.3       1 <0>        -0.5967
     25 C18         3.7429    2.5998   -2.6021 C.2       1 <0>         0.4501
     26 O5          4.2908    2.3621   -3.6588 O.2       1 <0>        -0.5098
     27 C19         2.4330    3.3447   -2.5834 C.3       1 <0>        -0.1925
     28 C20         1.3575    2.9077   -3.5799 C.3       1 <0>        -0.1575
     29 C21         2.1044    4.2264   -3.7898 C.3       1 <0>        -0.1659
     30 H2         -0.8863    1.9648    0.3046 H         1 <0>         0.1254
     31 H3          1.2143    3.2444    0.1903 H         1 <0>         0.1259
     32 H4          3.4208   -0.3969   -0.0563 H         1 <0>         0.1263
     33 H5         -0.8347   -0.4956    0.2332 H         1 <0>         0.1242
     34 H6          2.6293    2.4992    2.3323 H         1 <0>         0.1150
     35 H7          2.3766    2.3184    4.7707 H         1 <0>         0.1122
     36 H8          4.1718    1.3340    6.1308 H         1 <0>         0.1211
     37 H9          6.4960    0.6923    2.5821 H         1 <0>         0.1570
     38 H10         2.1017    3.6886   -1.6035 H         1 <0>         0.1083
     39 H11         1.5973    2.0814   -4.2491 H         1 <0>         0.0928
     40 H12         0.3183    2.9639   -3.2558 H         1 <0>         0.0894
     41 H13         1.5566    5.1502   -3.6037 H         1 <0>         0.0884
     42 H14         2.8356    4.2677   -4.5971 H         1 <0>         0.0975
@<TRIPOS>BOND
     1    1    6 ar
     2    1    2 ar
     3    1   30 1
     4    2    3 ar
     5    2   31 1
     6    3    4 ar
     7    3    8 1
     8    4    5 ar
     9    4   32 1
    10    5    6 ar
    11    5    7 1
    12    6   33 1
    13    8    9 1
    14    8   14 1
    15    8   10 1
    16   10   11 2
    17   10   25 1
    18   11   12 1
    19   11   24 1
    20   12   13 2
    21   12   14 am
    22   14   15 1
    23   15   20 ar
    24   15   16 ar
    25   16   17 ar
    26   16   34 1
    27   17   18 ar
    28   17   35 1
    29   18   19 ar
    30   18   36 1
    31   19   20 ar
    32   19   21 1
    33   20   37 1
    34   21   22 2
    35   21   23 1
    36   25   26 2
    37   25   27 1
    38   27   29 1
    39   27   28 1
    40   27   38 1
    41   28   29 1
    42   28   39 1
    43   28   40 1
    44   29   41 1
    45   29   42 1
@<TRIPOS>MOLECULE
ZINC33810178
   48    51     0     0     0
SMALL
USER_CHARGES

@<TRIPOS>ATOM
      1 C1         -0.0187    1.5258    0.0104 C.3       1 <0>        -0.1443
      2 C2          0.0021   -0.0041    0.0020 C.3       1 <0>        -0.1053
      3 C3         -1.4333   -0.5336    0.0129 C.3       1 <0>        -0.0916
      4 S1         -1.4087   -2.3475    0.0029 S.3       1 <0>        -0.0835
      5 C4         -3.1124   -2.7969    0.0168 C.ar      1 <0>         0.3382
      6 N1         -4.0267   -1.8369    0.0252 N.ar      1 <0>        -0.6341
      7 C5         -5.3259   -2.1348    0.0358 C.ar      1 <0>         0.4577
      8 O1         -6.2610   -1.1536    0.0442 O.3       1 <0>        -0.7029
      9 C6         -5.6985   -3.4640    0.0376 C.ar      1 <0>        -0.3511
     10 C7         -4.7169   -4.4606    0.0280 C.ar      1 <0>         0.4039
     11 N2         -3.4337   -4.0811    0.0129 N.ar      1 <0>        -0.5853
     12 N3         -5.0515   -5.7712    0.0286 N.2       1 <0>        -0.6079
     13 C8         -6.2703   -6.2416    0.0391 C.2       1 <0>         0.2941
     14 C9         -7.3924   -5.3882    0.0506 C.2       1 <0>        -0.4286
     15 C10        -7.1479   -3.8894    0.0503 C.3       1 <0>         0.1294
     16 H1         -7.6202   -3.4661    0.9368 H         1 <0>         0.0412
     17 C11        -7.8230   -3.3015   -1.1620 C.ar      1 <0>         0.0188
     18 C12        -7.3751   -3.6294   -2.4285 C.ar      1 <0>        -0.0533
     19 C13        -7.9921   -3.0919   -3.5412 C.ar      1 <0>        -0.1569
     20 C14        -9.0625   -2.2226   -3.3874 C.ar      1 <0>         0.1292
     21 C15        -9.5102   -1.8955   -2.1159 C.ar      1 <0>        -0.0827
     22 C16        -8.8927   -2.4397   -1.0062 C.ar      1 <0>         0.0232
     23 N4        -10.6514   -0.9681   -1.9483 N.pl3     1 <0>         0.0544
     24 O2        -11.0412   -0.6835   -0.8398 O.2       1 <0>        -0.1866
     25 O3        -11.1939   -0.4953   -2.9198 O.3       1 <0>        -0.1779
     26 O4         -9.6710   -1.6920   -4.4806 O.3       1 <0>        -0.4805
     27 C17        -8.6479   -5.8579    0.0611 C.2       1 <0>         0.3042
     28 O5         -9.6785   -4.9879    0.0713 O.3       1 <0>        -0.6747
     29 C18        -8.9312   -7.3364    0.0613 C.3       1 <0>        -0.1221
     30 C19        -7.7952   -8.0680   -0.6596 C.3       1 <0>        -0.1055
     31 C20        -6.4733   -7.7396    0.0392 C.3       1 <0>        -0.0702
     32 H2          1.0039    1.9031    0.0027 H         1 <0>         0.0522
     33 H3         -0.5459    1.8868   -0.8726 H         1 <0>         0.0556
     34 H4         -0.5289    1.8773    0.9072 H         1 <0>         0.0556
     35 H5          0.5123   -0.3556   -0.8948 H         1 <0>         0.0662
     36 H6          0.5293   -0.3651    0.8851 H         1 <0>         0.0663
     37 H7         -1.9435   -0.1821    0.9097 H         1 <0>         0.0853
     38 H8         -1.9605   -0.1726   -0.8702 H         1 <0>         0.0852
     39 H9         -6.5419   -4.3061   -2.5477 H         1 <0>         0.1253
     40 H10        -7.6415   -3.3478   -4.5302 H         1 <0>         0.1333
     41 H11        -9.2433   -2.1883   -0.0161 H         1 <0>         0.1409
     42 H12       -10.4057   -2.2225   -4.8181 H         1 <0>         0.3837
     43 H13        -9.0001   -7.6938    1.0887 H         1 <0>         0.0698
     44 H14        -9.8722   -7.5268   -0.4549 H         1 <0>         0.0642
     45 H15        -7.9711   -9.1431   -0.6216 H         1 <0>         0.0582
     46 H16        -7.7506   -7.7399   -1.6981 H         1 <0>         0.0612
     47 H17        -5.6516   -8.2186   -0.4931 H         1 <0>         0.0741
     48 H18        -6.5038   -8.1029    1.0664 H         1 <0>         0.0737
@<TRIPOS>BOND
     1    1    2 1
     2    1   32 1
     3    1   33 1
     4    1   34 1
     5    2    3 1
     6    2   35 1
     7    2   36 1
     8    3    4 1
     9    3   37 1
    10    3   38 1
    11    4    5 1
    12    5   11 ar
    13    5    6 ar
    14    6    7 ar
    15    7    8 1
    16    7    9 ar
    17    9   15 1
    18    9   10 ar
    19   10   11 ar
    20   10   12 1
    21   12   13 2
    22   13   31 1
    23   13   14 1
    24   14   15 1
    25   14   27 2
    26   15   16 1
    27   15   17 1
    28   17   22 ar
    29   17   18 ar
    30   18   19 ar
    31   18   39 1
    32   19   20 ar
    33   19   40 1
    34   20   21 ar
    35   20   26 1
    36   21   22 ar
    37   21   23 1
    38   22   41 1
    39   23   24 2
    40   23   25 1
    41   26   42 1
    42   27   28 1
    43   27   29 1
    44   29   30 1
    45   29   43 1
    46   29   44 1
    47   30   31 1
    48   30   45 1
    49   30   46 1
    50   31   47 1
    51   31   48 1
@<TRIPOS>MOLECULE
ZINC13137083
   47    51     0     0     0
SMALL
USER_CHARGES

@<TRIPOS>ATOM
      1 C1         -2.5976   -0.9216   -0.4978 C.ar      1 <0>        -0.1763
      2 C2         -2.1096   -0.0147   -1.4271 C.ar      1 <0>        -0.1033
      3 C3         -0.8157   -0.1137   -1.8935 C.ar      1 <0>        -0.1603
      4 C4          0.0122   -1.1290   -1.4317 C.ar      1 <0>         0.1560
      5 C5         -0.4808   -2.0470   -0.4908 C.ar      1 <0>        -0.1376
      6 C6         -1.7934   -1.9356   -0.0271 C.ar      1 <0>        -0.0538
      7 C7          0.4060   -3.1178   -0.0096 C.2       1 <0>         0.3153
      8 C8          1.6794   -3.1686   -0.5059 C.2       1 <0>        -0.3567
      9 C9          2.0986   -2.2139   -1.4450 C.2       1 <0>         0.5451
     10 O1          3.2358   -2.2702   -1.8796 O.2       1 <0>        -0.5454
     11 O2          1.2818   -1.2405   -1.8784 O.3       1 <0>        -0.3025
     12 C10         2.6284   -4.2450   -0.0458 C.3       1 <0>         0.1514
     13 C11         3.4466   -4.7271   -1.2160 C.ar      1 <0>         0.0710
     14 C12         4.7845   -4.3920   -1.3087 C.ar      1 <0>        -0.0597
     15 C13         5.5350   -4.8341   -2.3820 C.ar      1 <0>        -0.0655
     16 C14         4.9477   -5.6118   -3.3624 C.ar      1 <0>        -0.0866
     17 C15         3.6100   -5.9477   -3.2693 C.ar      1 <0>        -0.0612
     18 C16         2.8606   -5.5091   -2.1937 C.ar      1 <0>        -0.1349
     19 N1          5.7511   -6.0845   -4.5123 N.pl3     1 <0>         0.0563
     20 O3          6.9209   -5.7904   -4.5940 O.2       1 <0>        -0.1955
     21 O4          5.2375   -6.7646   -5.3697 O.3       1 <0>        -0.1980
     22 C17         3.5451   -3.6877    1.0125 C.2       1 <0>        -0.4502
     23 C18         3.4478   -2.3749    1.3833 C.2       1 <0>         0.3485
     24 C19         4.3660   -1.8802    2.4209 C.ar      1 <0>        -0.1584
     25 C20         4.3217   -0.5514    2.8480 C.ar      1 <0>        -0.0425
     26 C21         5.1949   -0.1200    3.8216 C.ar      1 <0>        -0.1726
     27 C22         6.1146   -0.9981    4.3764 C.ar      1 <0>        -0.0939
     28 C23         6.1687   -2.3127    3.9637 C.ar      1 <0>        -0.1588
     29 C24         5.2967   -2.7683    2.9833 C.ar      1 <0>         0.1506
     30 O5          5.3356   -4.0529    2.5681 O.3       1 <0>        -0.3049
     31 C25         4.4983   -4.5149    1.6258 C.2       1 <0>         0.4998
     32 O6          4.5715   -5.6841    1.2900 O.2       1 <0>        -0.5458
     33 O7          2.5351   -1.5558    0.8130 O.3       1 <0>        -0.6143
     34 O8         -0.0251   -4.0244    0.8967 O.3       1 <0>        -0.6926
     35 H1         -3.6119   -0.8294   -0.1382 H         1 <0>         0.1118
     36 H2         -2.7494    0.7764   -1.7892 H         1 <0>         0.1153
     37 H3         -0.4464    0.5974   -2.6175 H         1 <0>         0.1210
     38 H4         -2.1756   -2.6408    0.6961 H         1 <0>         0.1272
     39 H5          2.0600   -5.0780    0.3678 H         1 <0>         0.0753
     40 H6          5.2433   -3.7844   -0.5427 H         1 <0>         0.1319
     41 H7          6.5801   -4.5717   -2.4548 H         1 <0>         0.1325
     42 H8          3.1511   -6.5549   -4.0355 H         1 <0>         0.1348
     43 H9          1.8164   -5.7746   -2.1190 H         1 <0>         0.1353
     44 H10         3.6071    0.1341    2.4170 H         1 <0>         0.1314
     45 H11         5.1639    0.9069    4.1546 H         1 <0>         0.1161
     46 H12         6.7950   -0.6485    5.1388 H         1 <0>         0.1196
     47 H13         6.8890   -2.9875    4.4022 H         1 <0>         0.1254
@<TRIPOS>BOND
     1    1    6 ar
     2    1    2 ar
     3    1   35 1
     4    2    3 ar
     5    2   36 1
     6    3    4 ar
     7    3   37 1
     8    4   11 1
     9    4    5 ar
    10    5    6 ar
    11    5    7 1
    12    6   38 1
    13    7    8 2
    14    7   34 1
    15    8    9 1
    16    8   12 1
    17    9   10 2
    18    9   11 1
    19   12   13 1
    20   12   22 1
    21   12   39 1
    22   13   18 ar
    23   13   14 ar
    24   14   15 ar
    25   14   40 1
    26   15   16 ar
    27   15   41 1
    28   16   17 ar
    29   16   19 1
    30   17   18 ar
    31   17   42 1
    32   18   43 1
    33   19   20 2
    34   19   21 1
    35   22   31 1
    36   22   23 2
    37   23   24 1
    38   23   33 1
    39   24   29 ar
    40   24   25 ar
    41   25   26 ar
    42   25   44 1
    43   26   27 ar
    44   26   45 1
    45   27   28 ar
    46   27   46 1
    47   28   29 ar
    48   28   47 1
    49   29   30 1
    50   30   31 1
    51   31   32 2
@<TRIPOS>MOLECULE
ZINC13273711
   41    43     0     0     0
SMALL
USER_CHARGES
3-allyl-2-(3-carboxy-4-nitro-phenyl)sulfanyl-4-oxo-quinazoline-7-carboxylic acid
@<TRIPOS>ATOM
      1 C1          0.6039    2.0556   -1.6746 C.2       1 <0>        -0.1602
      2 C2         -0.1639    1.4091   -0.8328 C.2       1 <0>        -0.1787
      3 C3          0.3870    0.9572    0.4951 C.3       1 <0>         0.1205
      4 N1         -0.4541    1.4781    1.5756 N.am      1 <0>        -0.5277
      5 C4         -0.1700    2.6806    2.1268 C.2       1 <0>         0.5605
      6 O1          0.7755    3.3433    1.7419 O.2       1 <0>        -0.5218
      7 C5         -1.0491    3.1604    3.2051 C.ar      1 <0>        -0.1967
      8 C6         -0.8383    4.3892    3.8296 C.ar      1 <0>        -0.0669
      9 C7         -1.6731    4.7958    4.8306 C.ar      1 <0>        -0.0879
     10 C8         -2.7438    3.9893    5.2381 C.ar      1 <0>        -0.0682
     11 C9         -2.9727    2.7617    4.6295 C.ar      1 <0>        -0.0673
     12 C10        -2.1244    2.3347    3.6039 C.ar      1 <0>         0.1410
     13 N2         -2.3092    1.1460    2.9830 N.2       1 <0>        -0.4909
     14 C11        -1.5153    0.7435    2.0220 C.2       1 <0>         0.3318
     15 S1         -1.8317   -0.8182    1.2698 S.3       1 <0>         0.0913
     16 C12        -3.1544   -1.3851    2.2865 C.ar      1 <0>        -0.1190
     17 C13        -2.8807   -2.0437    3.4801 C.ar      1 <0>        -0.0498
     18 C14        -3.9145   -2.4862    4.2836 C.ar      1 <0>        -0.0924
     19 C15        -5.2257   -2.2867    3.9016 C.ar      1 <0>         0.0283
     20 C16        -5.5116   -1.6311    2.7023 C.ar      1 <0>        -0.0694
     21 C17        -4.4679   -1.1797    1.8936 C.ar      1 <0>         0.0003
     22 C18        -6.9142   -1.4158    2.2912 C.2       1 <0>         0.4829
     23 O2         -7.8199   -1.7044    3.0475 O.co2     1 <0>        -0.5955
     24 N3         -6.3290   -2.7681    4.7632 N.pl3     1 <0>         0.0276
     25 O3         -6.3462   -2.4826    5.9471 O.2       1 <0>        -0.1992
     26 O4         -7.2196   -3.4498    4.2881 O.3       1 <0>        -0.0755
     27 C19        -3.6369    4.4482    6.3248 C.2       1 <0>         0.4878
     28 O5         -4.5660    3.7525    6.6817 O.co2     1 <0>        -0.6134
     29 H1          0.2091    2.3795   -2.6263 H         1 <0>         0.1027
     30 H2          1.6317    2.2646   -1.4170 H         1 <0>         0.0995
     31 H3         -1.1917    1.2001   -1.0904 H         1 <0>         0.1204
     32 H4          0.3945   -0.1321    0.5336 H         1 <0>         0.1025
     33 H5          1.4037    1.3320    0.6132 H         1 <0>         0.1046
     34 H6         -0.0156    5.0180    3.5225 H         1 <0>         0.1315
     35 H7         -1.5068    5.7479    5.3124 H         1 <0>         0.1413
     36 H8         -3.7988    2.1424    4.9464 H         1 <0>         0.1455
     37 H9         -1.8567   -2.2064    3.7824 H         1 <0>         0.1444
     38 H10        -3.6955   -2.9934    5.2115 H         1 <0>         0.1440
     39 H11        -4.6826   -0.6723    0.9647 H         1 <0>         0.1585
     40 O6         -7.1888   -0.8994    1.0777 O.co2     1 <0>        -0.7346
     41 O7         -3.4194    5.6376    6.9181 O.co2     1 <0>        -0.7514
@<TRIPOS>BOND
     1    1    2 2
     2    1   29 1
     3    1   30 1
     4    2    3 1
     5    2   31 1
     6    3    4 1
     7    3   32 1
     8    3   33 1
     9    4   14 1
    10    4    5 am
    11    5    6 2
    12    5    7 1
    13    7   12 ar
    14    7    8 ar
    15    8    9 ar
    16    8   34 1
    17    9   10 ar
    18    9   35 1
    19   10   11 ar
    20   10   27 1
    21   11   12 ar
    22   11   36 1
    23   12   13 1
    24   13   14 2
    25   14   15 1
    26   15   16 1
    27   16   21 ar
    28   16   17 ar
    29   17   18 ar
    30   17   37 1
    31   18   19 ar
    32   18   38 1
    33   19   20 ar
    34   19   24 1
    35   20   21 ar
    36   20   22 1
    37   21   39 1
    38   22   23 2
    39   22   40 1
    40   24   25 2
    41   24   26 1
    42   27   28 2
    43   27   41 1
@<TRIPOS>MOLECULE
ZINC27532347
   56    60     0     0     0
SMALL
USER_CHARGES
4-[[4-[(E)-[1-(1,3-benzodioxol-5-yl)-2,4,6-trioxo-hexahydropyrimidin-5-ylidene]methyl]-2-methoxy-phenoxy]methyl]benzoic acid
@<TRIPOS>ATOM
      1 C1          5.4355   -6.9363   -0.6473 C.3       1 <0>         0.0237
      2 O1          6.6433   -6.1726   -0.6506 O.3       1 <0>        -0.3059
      3 C2          6.5203   -4.8223   -0.5465 C.ar      1 <0>         0.0828
      4 C3          5.2698   -4.2506   -0.4379 C.ar      1 <0>        -0.0627
      5 C4          5.1469   -2.8564   -0.3360 C.ar      1 <0>        -0.0875
      6 C5          6.2981   -2.0540   -0.3342 C.ar      1 <0>        -0.0838
      7 C6          7.5407   -2.6354   -0.4373 C.ar      1 <0>        -0.1982
      8 C7          7.6600   -4.0163   -0.5434 C.ar      1 <0>         0.1253
      9 O2          8.8890   -4.5829   -0.6448 O.3       1 <0>        -0.2934
     10 C8         10.0129   -3.7005   -0.6358 C.3       1 <0>         0.1044
     11 C9         11.2827   -4.5031   -0.7562 C.ar      1 <0>        -0.1025
     12 C10        11.9247   -4.9518    0.3844 C.ar      1 <0>        -0.1134
     13 C11        13.0847   -5.6910    0.2812 C.ar      1 <0>        -0.0830
     14 C12        13.6167   -5.9772   -0.9776 C.ar      1 <0>        -0.1061
     15 C13        12.9666   -5.5168   -2.1244 C.ar      1 <0>        -0.0908
     16 C14        11.8044   -4.7830   -2.0069 C.ar      1 <0>        -0.1113
     17 C15        14.8614   -6.7640   -1.0957 C.2       1 <0>         0.4898
     18 O3         15.3216   -7.0117   -2.1923 O.co2     1 <0>        -0.6322
     19 O4         15.4861   -7.2067    0.0126 O.co2     1 <0>        -0.7565
     20 C16         3.8240   -2.2422   -0.2261 C.2       1 <0>         0.0534
     21 C17         2.8026   -2.6470   -1.0642 C.2       1 <0>        -0.2738
     22 C18         3.0563   -3.5354   -2.2158 C.2       1 <0>         0.5282
     23 O5          4.1781   -3.9376   -2.4596 O.3       1 <0>        -0.5353
     24 N1          2.0098   -3.8884   -2.9905 N.2       1 <0>        -0.6985
     25 C19         0.7689   -3.4519   -2.7338 C.2       1 <0>         0.6608
     26 O6         -0.1294   -3.8071   -3.4713 O.2       1 <0>        -0.5783
     27 N2          0.4649   -2.6451   -1.7077 N.am      1 <0>        -0.5451
     28 C20         1.4101   -2.2059   -0.8512 C.2       1 <0>         0.5690
     29 O7          1.1222   -1.4699    0.0735 O.2       1 <0>        -0.5254
     30 C21        -0.8665   -2.2434   -1.5233 C.ar      1 <0>         0.1712
     31 C22        -1.5725   -2.6718   -0.4074 C.ar      1 <0>        -0.0947
     32 C23        -2.8857   -2.2821   -0.2274 C.ar      1 <0>        -0.0894
     33 C24        -3.4983   -1.4535   -1.1538 C.ar      1 <0>         0.0202
     34 C25        -2.7923   -1.0222   -2.2744 C.ar      1 <0>         0.0382
     35 C26        -1.4779   -1.4181   -2.4566 C.ar      1 <0>        -0.0765
     36 O8         -3.6105   -0.2302   -3.0274 O.3       1 <0>        -0.3104
     37 C27        -4.6886    0.1509   -2.1524 C.3       1 <0>         0.2100
     38 O9         -4.7592   -0.9312   -1.2052 O.3       1 <0>        -0.3076
     39 H1          5.6776   -8.0056   -0.7368 H         1 <0>         0.0957
     40 H2          4.8061   -6.6306   -1.4960 H         1 <0>         0.0651
     41 H3          4.8932   -6.7606    0.2934 H         1 <0>         0.0469
     42 H4          4.3877   -4.8737   -0.4354 H         1 <0>         0.1318
     43 H5          6.2087   -0.9808   -0.2523 H         1 <0>         0.1242
     44 H6          8.4262   -2.0171   -0.4354 H         1 <0>         0.1330
     45 H7          9.9382   -3.0030   -1.4831 H         1 <0>         0.0679
     46 H8         10.0259   -3.1328    0.3063 H         1 <0>         0.0671
     47 H9         11.5143   -4.7262    1.3576 H         1 <0>         0.1173
     48 H10        13.5824   -6.0445    1.1722 H         1 <0>         0.1310
     49 H11        13.3725   -5.7349   -3.1011 H         1 <0>         0.1277
     50 H12        11.3004   -4.4266   -2.8930 H         1 <0>         0.1184
     51 H13         3.6421   -1.4581    0.5236 H         1 <0>         0.1397
     52 H14        -1.0960   -3.3140    0.3185 H         1 <0>         0.1373
     53 H15        -3.4345   -2.6205    0.6391 H         1 <0>         0.1377
     54 H16        -0.9288   -1.0850   -3.3249 H         1 <0>         0.1360
     55 H17        -4.4486    1.1106   -1.6714 H         1 <0>         0.0805
     56 H18        -5.6152    0.2549   -2.7360 H         1 <0>         0.1282
@<TRIPOS>BOND
     1    1    2 1
     2    1   39 1
     3    1   40 1
     4    1   41 1
     5    2    3 1
     6    3    8 ar
     7    3    4 ar
     8    4    5 ar
     9    4   42 1
    10    5    6 ar
    11    5   20 1
    12    6    7 ar
    13    6   43 1
    14    7    8 ar
    15    7   44 1
    16    8    9 1
    17    9   10 1
    18   10   11 1
    19   10   45 1
    20   10   46 1
    21   11   16 ar
    22   11   12 ar
    23   12   13 ar
    24   12   47 1
    25   13   14 ar
    26   13   48 1
    27   14   15 ar
    28   14   17 1
    29   15   16 ar
    30   15   49 1
    31   16   50 1
    32   17   18 2
    33   17   19 1
    34   20   21 2
    35   20   51 1
    36   21   28 1
    37   21   22 1
    38   22   23 1
    39   22   24 2
    40   24   25 1
    41   25   26 2
    42   25   27 am
    43   27   28 am
    44   27   30 1
    45   28   29 2
    46   30   35 ar
    47   30   31 ar
    48   31   32 ar
    49   31   52 1
    50   32   33 ar
    51   32   53 1
    52   33   38 1
    53   33   34 ar
    54   34   35 ar
    55   34   36 1
    56   35   54 1
    57   36   37 1
    58   37   38 1
    59   37   55 1
    60   37   56 1
@<TRIPOS>MOLECULE
ZINC13278158
   51    56     0     0     0
SMALL
USER_CHARGES

@<TRIPOS>ATOM
      1 C1          0.0475    1.4735    0.1337 C.3       1 <0>         0.0249
      2 O1          0.1404    0.0489    0.0697 O.3       1 <0>        -0.3125
      3 C2          0.7863   -0.5742    1.0915 C.ar      1 <0>         0.1519
      4 C3          1.3138    0.1703    2.1358 C.ar      1 <0>        -0.1708
      5 C4          1.9704   -0.4619    3.1748 C.ar      1 <0>        -0.0093
      6 C5          2.1038   -1.8379    3.1776 C.ar      1 <0>        -0.1101
      7 C6          1.5795   -2.5901    2.1376 C.ar      1 <0>         0.0726
      8 C7          0.9131   -1.9578    1.0929 C.ar      1 <0>        -0.0132
      9 O2          0.4894   -2.9070    0.2067 O.3       1 <0>        -0.3043
     10 C8          1.2522   -4.0885    0.5158 C.3       1 <0>         0.2131
     11 O3          1.5757   -3.9356    1.9072 O.3       1 <0>        -0.3075
     12 C9          2.5427    0.3509    4.3074 C.3       1 <0>         0.2585
     13 H1          3.1915   -0.2712    4.9240 H         1 <0>         0.0929
     14 C10         1.4275    0.9297    5.1465 C.2       1 <0>        -0.4719
     15 C11         1.5526    2.2791    5.0852 C.2       1 <0>         0.2964
     16 C12         2.7127    2.6196    4.2340 C.2       1 <0>         0.5073
     17 O4          3.0864    3.7481    3.9839 O.2       1 <0>        -0.4834
     18 N1          3.2948    1.4943    3.7779 N.am      1 <0>        -0.5021
     19 C13         4.4040    1.4271    2.9566 C.2       1 <0>         0.3836
     20 N2          5.0120    0.3646    2.4755 N.2       1 <0>        -0.5355
     21 C14         6.0893    0.4433    1.6812 C.ar      1 <0>         0.1012
     22 C15         6.8266   -0.6224    1.1050 C.ar      1 <0>        -0.0896
     23 C16         7.9023   -0.3829    0.3172 C.ar      1 <0>        -0.0727
     24 C17         8.3308    0.9247    0.0399 C.ar      1 <0>        -0.1191
     25 C18         7.6258    2.0014    0.5926 C.ar      1 <0>        -0.0294
     26 C19         6.5408    1.7541    1.3863 C.ar      1 <0>        -0.1717
     27 S1          5.3745    2.7622    2.2702 S.3       1 <0>         0.0299
     28 C20         9.5026    1.1607   -0.8177 C.2       1 <0>         0.5266
     29 O5         10.1119    0.2132   -1.2954 O.co2     1 <0>        -0.6869
     30 O6          9.8679    2.3044   -1.0533 O.co2     1 <0>        -0.6858
     31 O7          0.7452    3.1700    5.7028 O.3       1 <0>        -0.5879
     32 C21         0.4433    0.2046    5.8585 C.2       1 <0>         0.4553
     33 O8         -0.4614    0.7935    6.4135 O.2       1 <0>        -0.5010
     34 C22         0.5181   -1.2989    5.9280 C.3       1 <0>        -0.1976
     35 C23        -0.7735   -2.0824    5.6855 C.3       1 <0>        -0.1561
     36 C24        -0.1894   -1.9882    7.0964 C.3       1 <0>        -0.1630
     37 H2          1.0494    1.9024    0.1519 H         1 <0>         0.0566
     38 H3         -0.4898    1.8422   -0.7400 H         1 <0>         0.0999
     39 H4         -0.4879    1.7624    1.0381 H         1 <0>         0.0603
     40 H5          1.2119    1.2455    2.1371 H         1 <0>         0.1348
     41 H6          2.6179   -2.3278    3.9913 H         1 <0>         0.1362
     42 H7          0.6534   -4.9846    0.3529 H         1 <0>         0.1254
     43 H8          2.1642   -4.1224   -0.0802 H         1 <0>         0.0785
     44 H9          6.5257   -1.6416    1.2976 H         1 <0>         0.1223
     45 H10         8.4425   -1.2166   -0.1065 H         1 <0>         0.1344
     46 H11         7.9360    3.0165    0.3934 H         1 <0>         0.1344
     47 H12         1.4491   -1.7402    5.5724 H         1 <0>         0.1109
     48 H13        -1.6773   -1.5104    5.4757 H         1 <0>         0.0936
     49 H14        -0.6924   -3.0394    5.1700 H         1 <0>         0.0913
     50 H15         0.2760   -2.8832    7.5093 H         1 <0>         0.0904
     51 H16        -0.7089   -1.3542    7.8149 H         1 <0>         0.0982
@<TRIPOS>BOND
     1    1    2 1
     2    1   37 1
     3    1   38 1
     4    1   39 1
     5    2    3 1
     6    3    8 ar
     7    3    4 ar
     8    4    5 ar
     9    4   40 1
    10    5    6 ar
    11    5   12 1
    12    6    7 ar
    13    6   41 1
    14    7   11 1
    15    7    8 ar
    16    8    9 1
    17    9   10 1
    18   10   11 1
    19   10   42 1
    20   10   43 1
    21   12   13 1
    22   12   18 1
    23   12   14 1
    24   14   15 2
    25   14   32 1
    26   15   16 1
    27   15   31 1
    28   16   17 2
    29   16   18 am
    30   18   19 1
    31   19   27 1
    32   19   20 2
    33   20   21 1
    34   21   26 ar
    35   21   22 ar
    36   22   23 ar
    37   22   44 1
    38   23   24 ar
    39   23   45 1
    40   24   25 ar
    41   24   28 1
    42   25   26 ar
    43   25   46 1
    44   26   27 1
    45   28   29 2
    46   28   30 1
    47   32   33 2
    48   32   34 1
    49   34   36 1
    50   34   35 1
    51   34   47 1
    52   35   36 1
    53   35   48 1
    54   35   49 1
    55   36   50 1
    56   36   51 1
@<TRIPOS>MOLECULE
ZINC13318927
   39    41     0     0     0
SMALL
USER_CHARGES

@<TRIPOS>ATOM
      1 C1          0.0565    1.5053    0.0066 C.3       1 <0>        -0.1020
      2 C2          0.0685   -0.0016   -0.0011 C.2       1 <0>        -0.0517
      3 C3          0.0617   -0.6971   -1.2097 C.2       1 <0>        -0.2298
      4 C4          0.0434   -0.1636   -2.5905 C.2       1 <0>         0.5644
      5 O1          0.0318    1.0372   -2.7947 O.2       1 <0>        -0.5167
      6 N1          0.0404   -1.0373   -3.6157 N.am      1 <0>        -0.6209
      7 H1          0.0284   -0.7024   -4.5260 H         1 <0>         0.4192
      8 C5          0.0542   -2.3833   -3.3984 C.2       1 <0>         0.3430
      9 N2          0.0702   -2.8870   -2.1808 N.2       1 <0>        -0.4884
     10 C6          0.0745   -2.1102   -1.1102 C.2       1 <0>         0.0637
     11 S1          0.0946   -2.4002    0.6413 S.3       1 <0>         0.1751
     12 C7          0.0920   -0.7004    1.1855 C.2       1 <0>        -0.1729
     13 C8          0.1073   -0.1960    2.5080 C.2       1 <0>         0.5546
     14 O2          0.1000    1.0139    2.7024 O.co2     1 <0>        -0.6601
     15 O3          0.1279   -0.9691    3.4585 O.co2     1 <0>        -0.6808
     16 S2          0.0499   -3.4765   -4.7803 S.3       1 <0>         0.0795
     17 C9          0.0717   -5.1291   -4.0325 C.3       1 <0>        -0.1398
     18 C10         0.0699   -6.1725   -5.1198 C.2       1 <0>         0.5285
     19 O4          0.0554   -5.8346   -6.2846 O.2       1 <0>        -0.4901
     20 N3          0.0845   -7.4812   -4.7980 N.am      1 <0>        -0.6605
     21 C11        -0.0122   -8.4506   -5.8036 C.ar      1 <0>         0.1316
     22 C12         0.5690   -8.2255   -7.0405 C.ar      1 <0>        -0.0714
     23 C13         0.4702   -9.1958   -8.0403 C.ar      1 <0>        -0.1106
     24 C14        -0.2148  -10.3875   -7.7857 C.ar      1 <0>        -0.0857
     25 C15        -0.7898  -10.6017   -6.5509 C.ar      1 <0>        -0.1120
     26 C16        -0.6872   -9.6421   -5.5585 C.ar      1 <0>        -0.0648
     27 Cl1        -1.4088   -9.9237   -4.0050 Cl        1 <0>        -0.0848
     28 C17         1.0859   -8.9637   -9.3601 C.2       1 <0>         0.5212
     29 O5          1.6843   -7.9202   -9.5808 O.co2     1 <0>        -0.6759
     30 O6          0.9980   -9.8148  -10.2341 O.co2     1 <0>        -0.6862
     31 H2          1.0812    1.8769   -0.0066 H         1 <0>         0.0605
     32 H3         -0.4732    1.8689   -0.8739 H         1 <0>         0.0636
     33 H4         -0.4471    1.8600    0.9058 H         1 <0>         0.0961
     34 H5          0.9688   -5.2405   -3.4235 H         1 <0>         0.1342
     35 H6         -0.8110   -5.2559   -3.4058 H         1 <0>         0.1342
     36 H7          0.1619   -7.7515   -3.8696 H         1 <0>         0.4119
     37 H8          1.0966   -7.3027   -7.2314 H         1 <0>         0.1558
     38 H9         -0.2938  -11.1402   -8.5561 H         1 <0>         0.1377
     39 H10        -1.3186  -11.5230   -6.3560 H         1 <0>         0.1302
@<TRIPOS>BOND
     1    1    2 1
     2    1   31 1
     3    1   32 1
     4    1   33 1
     5    2   12 2
     6    2    3 1
     7    3   10 2
     8    3    4 1
     9    4    5 2
    10    4    6 am
    11    6    7 1
    12    6    8 1
    13    8    9 2
    14    8   16 1
    15    9   10 1
    16   10   11 1
    17   11   12 1
    18   12   13 1
    19   13   14 2
    20   13   15 1
    21   16   17 1
    22   17   18 1
    23   17   34 1
    24   17   35 1
    25   18   19 2
    26   18   20 am
    27   20   21 1
    28   20   36 1
    29   21   26 ar
    30   21   22 ar
    31   22   23 ar
    32   22   37 1
    33   23   24 ar
    34   23   28 1
    35   24   25 ar
    36   24   38 1
    37   25   26 ar
    38   25   39 1
    39   26   27 1
    40   28   29 2
    41   28   30 1
@<TRIPOS>MOLECULE
ZINC16930934
   47    49     0     0     0
SMALL
USER_CHARGES

@<TRIPOS>ATOM
      1 C1         -1.2347   -0.1456    0.5370 C.3       1 <0>        -0.1577
      2 C2         -0.5269   -1.5013    0.4921 C.3       1 <0>         0.0117
      3 H1         -1.2688   -2.2995    0.5174 H         1 <0>         0.0679
      4 C3          0.3893   -1.6292    1.6817 C.2       1 <0>         0.5067
      5 O1         -0.0756   -1.6637    2.8083 O.co2     1 <0>        -0.6879
      6 O2          1.5955   -1.6982    1.5176 O.co2     1 <0>        -0.6717
      7 O3          0.2379   -1.5998   -0.7110 O.3       1 <0>        -0.2785
      8 C4         -0.4250   -1.9824   -1.8340 C.ar      1 <0>         0.1375
      9 C5         -1.7991   -2.1829   -1.7943 C.ar      1 <0>        -0.1964
     10 C6         -2.4808   -2.5728   -2.9327 C.ar      1 <0>        -0.0770
     11 C7         -1.8014   -2.7657   -4.1173 C.ar      1 <0>        -0.1433
     12 C8         -0.4173   -2.5661   -4.1688 C.ar      1 <0>        -0.0519
     13 C9          0.2684   -2.1663   -3.0170 C.ar      1 <0>        -0.1276
     14 C10         0.3119   -2.7708   -5.4287 C.2       1 <0>         0.0553
     15 C11        -0.3660   -2.8367   -6.6016 C.2       1 <0>        -0.2048
     16 C12         0.1236   -3.1944   -7.9486 C.2       1 <0>         0.5607
     17 O4          1.2876   -3.4893   -8.1454 O.2       1 <0>        -0.5043
     18 N1         -0.7619   -3.1796   -8.9306 N.am      1 <0>        -0.5380
     19 C13        -2.0744   -2.8437   -8.6884 C.2       1 <0>         0.3583
     20 N2         -3.0741   -2.7801   -9.5432 N.2       1 <0>        -0.3812
     21 C14        -4.2967   -2.3489   -9.1295 C.ar      1 <0>         0.1104
     22 C15        -4.4221   -1.1308   -8.4542 C.ar      1 <0>        -0.1407
     23 C16        -5.6601   -0.6978   -8.0377 C.ar      1 <0>        -0.1297
     24 C17        -6.7966   -1.4642   -8.2825 C.ar      1 <0>         0.0774
     25 C18        -6.6974   -2.6701   -8.9474 C.ar      1 <0>        -0.0962
     26 C19        -5.4484   -3.1258   -9.3844 C.ar      1 <0>        -0.1012
     27 C20        -5.3354   -4.4041  -10.0968 C.2       1 <0>         0.5188
     28 O5         -6.3365   -5.0736  -10.3153 O.co2     1 <0>        -0.6914
     29 O6         -4.2399   -4.8006  -10.4725 O.co2     1 <0>        -0.6585
     30 O7         -8.0124   -1.0221   -7.8634 O.3       1 <0>        -0.4997
     31 S1         -2.0937   -2.5218   -6.9323 S.3       1 <0>        -0.0355
     32 C21        -0.3412   -3.5240  -10.2910 C.3       1 <0>         0.0740
     33 H2         -0.4928    0.6526    0.5117 H         1 <0>         0.0592
     34 H3         -1.8974   -0.0530   -0.3235 H         1 <0>         0.0499
     35 H4         -1.8181   -0.0705    1.4546 H         1 <0>         0.0725
     36 H5         -2.3375   -2.0340   -0.8699 H         1 <0>         0.1330
     37 H6         -3.5490   -2.7270   -2.8939 H         1 <0>         0.1272
     38 H7         -2.3369   -3.0708   -5.0041 H         1 <0>         0.1364
     39 H8          1.3360   -2.0064   -3.0499 H         1 <0>         0.1369
     40 H9          1.3874   -2.8687   -5.4203 H         1 <0>         0.1574
     41 H10        -3.5464   -0.5296   -8.2589 H         1 <0>         0.1265
     42 H11        -5.7509    0.2438   -7.5166 H         1 <0>         0.1257
     43 H12        -7.5833   -3.2591   -9.1337 H         1 <0>         0.1383
     44 H13        -8.4785   -0.4782   -8.5131 H         1 <0>         0.3807
     45 H14         0.7228   -3.7605  -10.2933 H         1 <0>         0.0902
     46 H15        -0.9065   -4.3889  -10.6381 H         1 <0>         0.0865
     47 H16        -0.5270   -2.6787  -10.9537 H         1 <0>         0.0741
@<TRIPOS>BOND
     1    1    2 1
     2    1   33 1
     3    1   34 1
     4    1   35 1
     5    2    3 1
     6    2    4 1
     7    2    7 1
     8    4    5 2
     9    4    6 1
    10    7    8 1
    11    8   13 ar
    12    8    9 ar
    13    9   10 ar
    14    9   36 1
    15   10   11 ar
    16   10   37 1
    17   11   12 ar
    18   11   38 1
    19   12   13 ar
    20   12   14 1
    21   13   39 1
    22   14   15 2
    23   14   40 1
    24   15   31 1
    25   15   16 1
    26   16   17 2
    27   16   18 am
    28   18   19 1
    29   18   32 1
    30   19   20 2
    31   19   31 1
    32   20   21 1
    33   21   26 ar
    34   21   22 ar
    35   22   23 ar
    36   22   41 1
    37   23   24 ar
    38   23   42 1
    39   24   25 ar
    40   24   30 1
    41   25   26 ar
    42   25   43 1
    43   26   27 1
    44   27   28 2
    45   27   29 1
    46   30   44 1
    47   32   45 1
    48   32   46 1
    49   32   47 1
@<TRIPOS>MOLECULE
ZINC15034707
   43    46     0     0     0
SMALL
USER_CHARGES
(2R)-2-[(5Z)-5-(9-anthrylmethylene)-4-oxo-2-thioxo-thiazolidin-3-yl]butanedioic acid
@<TRIPOS>ATOM
      1 C1          1.1944    1.7718    0.0002 C.ar      1 <0>        -0.1186
      2 C2         -0.0126    1.0758    0.0080 C.ar      1 <0>        -0.1174
      3 C3         -1.2096    1.7233    0.0172 C.ar      1 <0>        -0.1009
      4 C4         -1.2392    3.1270    0.0307 C.ar      1 <0>        -0.0260
      5 C5          0.0270    3.8613    0.0221 C.ar      1 <0>        -0.0517
      6 C6          1.2339    3.1300    0.0066 C.ar      1 <0>        -0.1067
      7 C7          0.0328    5.2575    0.0295 C.ar      1 <0>        -0.0857
      8 C8         -1.1728    5.9616    0.0444 C.ar      1 <0>        -0.0421
      9 C9         -1.1896    7.3727    0.0522 C.ar      1 <0>        -0.1195
     10 C10        -2.3796    8.0286    0.0676 C.ar      1 <0>        -0.1015
     11 C11        -3.5921    7.3423    0.0755 C.ar      1 <0>        -0.1048
     12 C12        -3.6424    5.9823    0.0691 C.ar      1 <0>        -0.0952
     13 C13        -2.4484    5.2438    0.0532 C.ar      1 <0>        -0.0273
     14 C14        -2.4653    3.8304    0.0462 C.ar      1 <0>        -0.0405
     15 C15        -3.6934    3.1287    0.0541 C.2       1 <0>         0.0122
     16 C16        -4.6536    3.4448    0.9700 C.2       1 <0>        -0.1716
     17 C17        -5.9925    2.8599    1.1680 C.2       1 <0>         0.5495
     18 O1         -6.4049    1.9551    0.4653 O.2       1 <0>        -0.4442
     19 N1         -6.7234    3.3671    2.1463 N.am      1 <0>        -0.4689
     20 C18        -6.2629    4.3694    2.9224 C.2       1 <0>         0.3082
     21 S1         -7.0496    5.1531    4.2255 S.2       1 <0>        -0.3210
     22 S2         -4.6313    4.6768    2.2651 S.3       1 <0>         0.0055
     23 C19        -8.0630    2.8280    2.3930 C.3       1 <0>         0.0909
     24 H1         -8.2708    2.0305    1.6796 H         1 <0>         0.1123
     25 C20        -9.0992    3.9417    2.2289 C.3       1 <0>        -0.1704
     26 C21        -9.1142    4.4067    0.7955 C.2       1 <0>         0.4620
     27 O2         -8.3723    3.8993   -0.0120 O.co2     1 <0>        -0.6401
     28 C22        -8.1333    2.2790    3.7947 C.2       1 <0>         0.4770
     29 O3         -7.1639    2.3326    4.5138 O.co2     1 <0>        -0.6240
     30 H2          2.1215    1.2180   -0.0117 H         1 <0>         0.1186
     31 H3          0.0021   -0.0041    0.0020 H         1 <0>         0.1216
     32 H4         -2.1314    1.1606    0.0186 H         1 <0>         0.1325
     33 H5          2.1824    3.6464   -0.0004 H         1 <0>         0.1258
     34 H6          0.9705    5.7932    0.0231 H         1 <0>         0.1317
     35 H7         -0.2631    7.9275    0.0464 H         1 <0>         0.1264
     36 H8         -2.3857    9.1085    0.0735 H         1 <0>         0.1221
     37 H9         -4.5148    7.9035    0.0873 H         1 <0>         0.1285
     38 H10        -4.5953    5.4741    0.0754 H         1 <0>         0.1392
     39 H11        -3.8710    2.3427   -0.6649 H         1 <0>         0.1605
     40 H12       -10.0852    3.5633    2.4985 H         1 <0>         0.0923
     41 H13        -8.8404    4.7774    2.8792 H         1 <0>         0.0970
     42 O4         -9.9518    5.3844    0.4159 O.co2     1 <0>        -0.7814
     43 O5         -9.2729    1.7305    4.2443 O.co2     1 <0>        -0.7542
@<TRIPOS>BOND
     1    1    6 ar
     2    1    2 ar
     3    1   30 1
     4    2    3 ar
     5    2   31 1
     6    3    4 ar
     7    3   32 1
     8    4   14 ar
     9    4    5 ar
    10    5    6 ar
    11    5    7 ar
    12    6   33 1
    13    7    8 ar
    14    7   34 1
    15    8   13 ar
    16    8    9 ar
    17    9   10 ar
    18    9   35 1
    19   10   11 ar
    20   10   36 1
    21   11   12 ar
    22   11   37 1
    23   12   13 ar
    24   12   38 1
    25   13   14 ar
    26   14   15 1
    27   15   16 2
    28   15   39 1
    29   16   22 1
    30   16   17 1
    31   17   18 2
    32   17   19 am
    33   19   20 1
    34   19   23 1
    35   20   21 2
    36   20   22 1
    37   23   24 1
    38   23   25 1
    39   23   28 1
    40   25   26 1
    41   25   40 1
    42   25   41 1
    43   26   27 2
    44   26   42 1
    45   28   29 2
    46   28   43 1
@<TRIPOS>MOLECULE
ZINC20227144
   39    42     0     0     0
SMALL
USER_CHARGES
4-[[(5E)-5-[(1-methylbenzimidazol-2-yl)methylene]-4-oxo-thiazol-2-yl]amino]benzoic acid
@<TRIPOS>ATOM
      1 C1          5.1429   10.4203   -0.6948 C.3       1 <0>         0.0800
      2 N1          3.7963    9.8544   -0.5832 N.pl3     1 <0>        -0.4981
      3 C2          2.6099   10.5572   -0.5709 C.ar      1 <0>         0.0409
      4 C3          2.2882   11.9057   -0.6500 C.ar      1 <0>        -0.1177
      5 C4          0.9670   12.2968   -0.6089 C.ar      1 <0>        -0.1121
      6 C5         -0.0443   11.3525   -0.4880 C.ar      1 <0>        -0.1425
      7 C6          0.2497   10.0222   -0.4086 C.ar      1 <0>        -0.0526
      8 C7          1.5849    9.5987   -0.4487 C.ar      1 <0>         0.0461
      9 N2          2.1712    8.3885   -0.3982 N.2       1 <0>        -0.3890
     10 C8          3.4765    8.5238   -0.4716 C.2       1 <0>         0.3086
     11 C9          4.4426    7.4224   -0.4447 C.2       1 <0>        -0.0640
     12 C10         4.0086    6.1418   -0.3306 C.2       1 <0>        -0.1074
     13 C11         2.6241    5.6115   -0.2196 C.2       1 <0>         0.4994
     14 O1          1.6504    6.3461   -0.2210 O.2       1 <0>        -0.4635
     15 N3          2.5088    4.3055   -0.1264 N.2       1 <0>        -0.7048
     16 C12         3.5574    3.4978   -0.1184 C.2       1 <0>         0.4367
     17 S1          4.9410    4.6167   -0.2712 S.3       1 <0>        -0.1392
     18 N4          3.5765    2.1313   -0.0220 N.2       1 <0>        -0.5625
     19 C13         2.3928    1.4324    0.2001 C.ar      1 <0>         0.1469
     20 C14         1.3487    2.0377    0.8938 C.ar      1 <0>        -0.1606
     21 C15         0.1772    1.3501    1.1142 C.ar      1 <0>        -0.0736
     22 C16         0.0365    0.0419    0.6409 C.ar      1 <0>        -0.1584
     23 C17         1.0874   -0.5632   -0.0552 C.ar      1 <0>        -0.0705
     24 C18         2.2563    0.1301   -0.2721 C.ar      1 <0>        -0.1547
     25 C19        -1.2171   -0.6979    0.8756 C.2       1 <0>         0.4975
     26 O2         -2.1294   -0.1710    1.4810 O.co2     1 <0>        -0.6455
     27 O3         -1.3511   -1.9586    0.4188 O.co2     1 <0>        -0.7741
     28 H1          5.0753   11.5157   -0.7691 H         1 <0>         0.0826
     29 H2          5.6349   10.0214   -1.5942 H         1 <0>         0.0771
     30 H3          5.7297   10.1487    0.1951 H         1 <0>         0.0771
     31 H4          3.0699   12.6451   -0.7435 H         1 <0>         0.1129
     32 H5          0.7164   13.3454   -0.6708 H         1 <0>         0.1213
     33 H6         -1.0747   11.6745   -0.4567 H         1 <0>         0.1226
     34 H7         -0.5452    9.2971   -0.3148 H         1 <0>         0.1298
     35 H8          5.5197    7.6337   -0.5170 H         1 <0>         0.1404
     36 H9          1.4580    3.0482    1.2588 H         1 <0>         0.1297
     37 H10        -0.6343    1.8219    1.6484 H         1 <0>         0.1130
     38 H11         0.9821   -1.5735   -0.4218 H         1 <0>         0.1200
     39 H12         3.0684   -0.3366   -0.8097 H         1 <0>         0.1083
@<TRIPOS>BOND
     1    1    2 1
     2    1   28 1
     3    1   29 1
     4    1   30 1
     5    2   10 1
     6    2    3 1
     7    3    8 ar
     8    3    4 ar
     9    4    5 ar
    10    4   31 1
    11    5    6 ar
    12    5   32 1
    13    6    7 ar
    14    6   33 1
    15    7    8 ar
    16    7   34 1
    17    8    9 1
    18    9   10 2
    19   10   11 1
    20   11   12 2
    21   11   35 1
    22   12   17 1
    23   12   13 1
    24   13   14 2
    25   13   15 1
    26   15   16 2
    27   16   17 1
    28   16   18 1
    29   18   19 1
    30   19   24 ar
    31   19   20 ar
    32   20   21 ar
    33   20   36 1
    34   21   22 ar
    35   21   37 1
    36   22   23 ar
    37   22   25 1
    38   23   24 ar
    39   23   38 1
    40   24   39 1
    41   25   26 2
    42   25   27 1
@<TRIPOS>MOLECULE
ZINC37657117
   33    34     0     0     0
SMALL
USER_CHARGES

@<TRIPOS>ATOM
      1 C1          1.2105   -0.6823   -0.0897 C.ar      1 <0>        -0.0238
      2 C2          2.3989    0.0223   -0.0825 C.ar      1 <0>        -0.2569
      3 C3          2.3818    1.4095   -0.0292 C.ar      1 <0>         0.3128
      4 C4          1.1678    2.0854    0.0167 C.ar      1 <0>        -0.0943
      5 C5         -0.0172    1.3749    0.0092 C.ar      1 <0>        -0.0339
      6 C6          0.0042   -0.0076   -0.0440 C.ar      1 <0>        -0.1979
      7 I1         -1.7949   -1.0810   -0.0553 I         1 <0>        -0.0955
      8 Cl1         1.1407    3.8199    0.0841 Cl        1 <0>        -0.0793
      9 N1          3.5825    2.1250   -0.0212 N.2       1 <0>        -1.0768
     10 S1          5.0256    1.3197    0.0856 S.o2      1 <0>         2.7233
     11 O1          5.0163    0.6330    1.3297 O.2       1 <0>        -1.0428
     12 O2          5.2090    0.6487   -1.1535 O.2       1 <0>        -1.0547
     13 N2          6.2186    2.4638    0.1854 N.pl3     1 <0>        -0.9912
     14 C7          6.8515    2.9934   -1.0302 C.3       1 <0>         0.1350
     15 C8          6.7598    4.5224   -1.0077 C.3       1 <0>        -0.1317
     16 C9          7.3660    5.0468    0.2960 C.3       1 <0>        -0.0867
     17 C10         6.5747    4.4979    1.4854 C.3       1 <0>        -0.1662
     18 H1          5.5313    4.8009    1.3992 H         1 <0>         0.0715
     19 C11         6.6601    2.9731    1.4910 C.3       1 <0>         0.1600
     20 C12         7.1519    5.0411    2.7672 C.2       1 <0>         0.5025
     21 O3          7.1789    6.2444    2.9618 O.co2     1 <0>        -0.7081
     22 O4          7.5919    4.2773    3.6095 O.co2     1 <0>        -0.7003
     23 H2          1.2236   -1.7613   -0.1357 H         1 <0>         0.1105
     24 H3          3.3404   -0.5056   -0.1179 H         1 <0>         0.1095
     25 H4         -0.9608    1.8989    0.0452 H         1 <0>         0.1175
     26 H5          7.8981    2.6905   -1.0589 H         1 <0>         0.0517
     27 H6          6.3335    2.6091   -1.9089 H         1 <0>         0.0762
     28 H7          7.3093    4.9323   -1.8552 H         1 <0>         0.0563
     29 H8          5.7145    4.8252   -1.0705 H         1 <0>         0.0682
     30 H9          8.4041    4.7228    0.3698 H         1 <0>         0.0475
     31 H10         7.3243    6.1359    0.3036 H         1 <0>         0.0597
     32 H11         6.0159    2.5754    2.2752 H         1 <0>         0.0803
     33 H12         7.6908    2.6685    1.6725 H         1 <0>         0.0577
@<TRIPOS>BOND
     1    1    6 ar
     2    1    2 ar
     3    1   23 1
     4    2    3 ar
     5    2   24 1
     6    3    4 ar
     7    3    9 1
     8    4    5 ar
     9    4    8 1
    10    5    6 ar
    11    5   25 1
    12    6    7 1
    13    9   10 1
    14   10   11 2
    15   10   12 2
    16   10   13 1
    17   13   19 1
    18   13   14 1
    19   14   15 1
    20   14   26 1
    21   14   27 1
    22   15   16 1
    23   15   28 1
    24   15   29 1
    25   16   17 1
    26   16   30 1
    27   16   31 1
    28   17   18 1
    29   17   19 1
    30   17   20 1
    31   19   32 1
    32   19   33 1
    33   20   21 2
    34   20   22 1
@<TRIPOS>MOLECULE
ZINC16907090
   46    48     0     0     0
SMALL
USER_CHARGES

@<TRIPOS>ATOM
      1 C1          0.9950    0.4723    0.7895 C.3       1 <0>        -0.0973
      2 C2          1.1097   -1.0175    0.5933 C.ar      1 <0>        -0.1456
      3 C3          0.3782   -1.6407   -0.4014 C.ar      1 <0>        -0.1081
      4 C4          0.4813   -3.0055   -0.5843 C.ar      1 <0>        -0.1513
      5 C5          1.3209   -3.7527    0.2323 C.ar      1 <0>         0.1645
      6 C6          2.0541   -3.1237    1.2302 C.ar      1 <0>        -0.1156
      7 C7          1.9503   -1.7574    1.4043 C.ar      1 <0>        -0.1100
      8 C8          2.9661   -3.9301    2.1184 C.3       1 <0>        -0.0898
      9 N1          1.4273   -5.1347    0.0503 N.2       1 <0>        -0.5792
     10 C9          1.1284   -5.6907   -1.1667 C.2       1 <0>         0.4534
     11 N2          0.9077   -5.0770   -2.3184 N.2       1 <0>        -0.7124
     12 C10         0.6280   -5.7311   -3.4240 C.2       1 <0>         0.5244
     13 O1          0.4267   -5.1537   -4.4805 O.2       1 <0>        -0.5176
     14 C11         0.5710   -7.2078   -3.3172 C.2       1 <0>        -0.2060
     15 C12         0.3107   -8.1390   -4.2697 C.2       1 <0>         0.0090
     16 C13         0.1977   -7.7376   -5.6774 C.ar      1 <0>        -0.1278
     17 C14         1.0276   -6.7328   -6.1905 C.ar      1 <0>         0.0062
     18 C15         0.9177   -6.3608   -7.5111 C.ar      1 <0>        -0.2279
     19 C16        -0.0152   -6.9800   -8.3352 C.ar      1 <0>         0.1549
     20 C17        -0.8416   -7.9780   -7.8312 C.ar      1 <0>        -0.1810
     21 C18        -0.7364   -8.3620   -6.5135 C.ar      1 <0>        -0.0580
     22 O2         -0.1199   -6.6086   -9.6367 O.3       1 <0>        -0.2817
     23 C19         0.6732   -5.4979  -10.0601 C.3       1 <0>         0.0104
     24 H1          0.7472   -4.7739   -9.2487 H         1 <0>         0.0704
     25 C20         2.0734   -5.9856  -10.4378 C.3       1 <0>        -0.1539
     26 C21         0.0282   -4.8472  -11.2566 C.2       1 <0>         0.5074
     27 O3         -1.0141   -5.2932  -11.7051 O.co2     1 <0>        -0.6754
     28 O4          0.5487   -3.8747  -11.7761 O.co2     1 <0>        -0.6899
     29 S1          0.9505   -7.4186   -1.5822 S.3       1 <0>        -0.1554
     30 H2          1.7376    0.9783    0.1725 H         1 <0>         0.0560
     31 H3         -0.0030    0.8012    0.5000 H         1 <0>         0.0549
     32 H4          1.1676    0.7150    1.8380 H         1 <0>         0.0531
     33 H5         -0.2746   -1.0593   -1.0356 H         1 <0>         0.1053
     34 H6         -0.0905   -3.4916   -1.3609 H         1 <0>         0.1372
     35 H7          2.5235   -1.2670    2.1772 H         1 <0>         0.1067
     36 H8          3.9593   -3.9777    1.6718 H         1 <0>         0.0522
     37 H9          3.0306   -3.4570    3.0982 H         1 <0>         0.0446
     38 H10         2.5681   -4.9390    2.2275 H         1 <0>         0.0723
     39 H11         0.1866   -9.1753   -3.9920 H         1 <0>         0.1256
     40 H12         1.7522   -6.2507   -5.5510 H         1 <0>         0.1252
     41 H13         1.5572   -5.5861   -7.9079 H         1 <0>         0.1263
     42 H14        -1.5646   -8.4557   -8.4757 H         1 <0>         0.1252
     43 H15        -1.3758   -9.1405   -6.1241 H         1 <0>         0.1218
     44 H16         2.5399   -6.4562   -9.5724 H         1 <0>         0.0494
     45 H17         1.9993   -6.7096  -11.2493 H         1 <0>         0.0559
     46 H18         2.6784   -5.1384  -10.7608 H         1 <0>         0.0714
@<TRIPOS>BOND
     1    1    2 1
     2    1   30 1
     3    1   31 1
     4    1   32 1
     5    2    7 ar
     6    2    3 ar
     7    3    4 ar
     8    3   33 1
     9    4    5 ar
    10    4   34 1
    11    5    6 ar
    12    5    9 1
    13    6    7 ar
    14    6    8 1
    15    7   35 1
    16    8   36 1
    17    8   37 1
    18    8   38 1
    19    9   10 1
    20   10   29 1
    21   10   11 2
    22   11   12 1
    23   12   13 2
    24   12   14 1
    25   14   15 2
    26   14   29 1
    27   15   16 1
    28   15   39 1
    29   16   21 ar
    30   16   17 ar
    31   17   18 ar
    32   17   40 1
    33   18   19 ar
    34   18   41 1
    35   19   20 ar
    36   19   22 1
    37   20   21 ar
    38   20   42 1
    39   21   43 1
    40   22   23 1
    41   23   24 1
    42   23   25 1
    43   23   26 1
    44   25   44 1
    45   25   45 1
    46   25   46 1
    47   26   27 2
    48   26   28 1
@<TRIPOS>MOLECULE
ZINC15404350
   43    46     0     0     0
SMALL
USER_CHARGES

@<TRIPOS>ATOM
      1 C1         -1.2614    1.4285   -0.2111 C.3       1 <0>        -0.0784
      2 C2         -0.8929   -0.0325   -0.1840 C.2       1 <0>         0.0368
      3 C3         -0.9635   -0.8762   -1.2290 C.2       1 <0>        -0.1987
      4 C4         -0.5096   -2.1843   -0.7445 C.2       1 <0>        -0.1373
      5 C5         -0.1978   -2.0175    0.5751 C.2       1 <0>         0.1003
      6 N1         -0.4269   -0.7146    0.9052 N.pl3     1 <0>        -0.3405
      7 C6         -0.2201   -0.1618    2.1655 C.2       1 <0>         0.3324
      8 N2          0.2443   -0.8131    3.2518 N.2       1 <0>        -0.4098
      9 N3          0.2910    0.1323    4.2891 N.2       1 <0>        -0.4011
     10 C7         -0.1326    1.2641    3.7922 C.2       1 <0>         0.1075
     11 N4         -0.4373    1.0889    2.5067 N.2       1 <0>        -0.6217
     12 C8          0.3155   -3.0874    1.5040 C.3       1 <0>        -0.0824
     13 C9         -0.4105   -3.4287   -1.5245 C.2       1 <0>         0.1320
     14 N5          0.0063   -4.4945   -0.9315 N.2       1 <0>        -0.2948
     15 N6          0.1602   -5.7523   -1.4917 N.2       1 <0>        -0.4552
     16 C10         0.2873   -5.9633   -2.7832 C.2       1 <0>         0.3487
     17 S1          0.2524   -4.5772   -3.8796 S.3       1 <0>        -0.1959
     18 C11        -0.8066   -3.3995   -2.9779 C.3       1 <0>        -0.0672
     19 N7          0.4450   -7.2398   -3.2725 N.2       1 <0>        -0.6438
     20 C12         0.1148   -8.3396   -2.4753 C.ar      1 <0>         0.2225
     21 C13        -0.8438   -8.2133   -1.4774 C.ar      1 <0>        -0.1686
     22 C14        -1.1685   -9.3014   -0.6917 C.ar      1 <0>        -0.0918
     23 C15        -0.5406  -10.5164   -0.8964 C.ar      1 <0>        -0.1961
     24 C16         0.4150  -10.6461   -1.8889 C.ar      1 <0>        -0.0054
     25 C17         0.7399   -9.5621   -2.6829 C.ar      1 <0>        -0.1379
     26 C18         1.7761   -9.7051   -3.7678 C.3       1 <0>        -0.0846
     27 Cl1         1.2011  -12.1731   -2.1419 Cl        1 <0>        -0.1116
     28 H1         -0.3859    2.0191   -0.4810 H         1 <0>         0.0563
     29 H2         -2.0498    1.5908   -0.9461 H         1 <0>         0.0573
     30 H3         -1.6150    1.7324    0.7742 H         1 <0>         0.0915
     31 H4         -1.2909   -0.6373   -2.2300 H         1 <0>         0.1342
     32 H5         -0.2182    2.1937    4.3352 H         1 <0>         0.1641
     33 H6          1.4048   -3.1064    1.4695 H         1 <0>         0.0578
     34 H7         -0.0122   -2.8732    2.5212 H         1 <0>         0.0779
     35 H8         -0.0748   -4.0564    1.1930 H         1 <0>         0.0944
     36 H9         -1.8524   -3.6894   -3.0795 H         1 <0>         0.0864
     37 H10        -0.6627   -2.3958   -3.3778 H         1 <0>         0.1178
     38 H11        -1.3343   -7.2647   -1.3162 H         1 <0>         0.1230
     39 H12        -1.9135   -9.2033    0.0840 H         1 <0>         0.1071
     40 H13        -0.7962  -11.3657   -0.2801 H         1 <0>         0.1076
     41 H14         2.7614   -9.4768   -3.3615 H         1 <0>         0.0495
     42 H15         1.7670  -10.7272   -4.1464 H         1 <0>         0.0464
     43 H16         1.5492   -9.0147   -4.5802 H         1 <0>         0.0716
@<TRIPOS>BOND
     1    1    2 1
     2    1   28 1
     3    1   29 1
     4    1   30 1
     5    2    6 1
     6    2    3 2
     7    3    4 1
     8    3   31 1
     9    4    5 2
    10    4   13 1
    11    5    6 1
    12    5   12 1
    13    6    7 1
    14    7   11 2
    15    7    8 1
    16    8    9 1
    17    9   10 2
    18   10   11 1
    19   10   32 1
    20   12   33 1
    21   12   34 1
    22   12   35 1
    23   13   18 1
    24   13   14 2
    25   14   15 1
    26   15   16 2
    27   16   17 1
    28   16   19 1
    29   17   18 1
    30   18   36 1
    31   18   37 1
    32   19   20 1
    33   20   25 ar
    34   20   21 ar
    35   21   22 ar
    36   21   38 1
    37   22   23 ar
    38   22   39 1
    39   23   24 ar
    40   23   40 1
    41   24   25 ar
    42   24   27 1
    43   25   26 1
    44   26   41 1
    45   26   42 1
    46   26   43 1
@<TRIPOS>MOLECULE
ZINC20224779
   40    41     0     0     0
SMALL
USER_CHARGES
N-[4-(2-aminoethyl-ethyl-amino)phenyl]cyclopropanecarboxamide
@<TRIPOS>ATOM
      1 C1         -0.2625   -3.0711   -1.7124 C.3       1 <0>        -0.1784
      2 C2         -0.0247   -2.8265   -0.2209 C.3       1 <0>         0.1152
      3 N1          1.2234   -2.0807   -0.0413 N.pl3     1 <0>        -0.6243
      4 C3          2.4889   -2.7997    0.1253 C.3       1 <0>         0.1014
      5 C4          2.7327   -3.0651    1.6122 C.3       1 <0>        -0.0319
      6 N2          4.0017   -3.7861    1.7793 N.4       1 <0>        -0.6833
      7 C5          1.2068   -0.6819   -0.0288 C.ar      1 <0>         0.1798
      8 C6          0.0071   -0.0002   -0.1868 C.ar      1 <0>        -0.1588
      9 C7         -0.0092    1.3803   -0.1740 C.ar      1 <0>        -0.0741
     10 C8          1.1737    2.0871   -0.0032 C.ar      1 <0>         0.1167
     11 C9          2.3732    1.4057    0.1547 C.ar      1 <0>        -0.1037
     12 C10         2.3899    0.0252    0.1419 C.ar      1 <0>        -0.1775
     13 N3          1.1570    3.4884    0.0098 N.am      1 <0>        -0.6891
     14 C11         0.0948    4.1450    0.5168 C.2       1 <0>         0.5146
     15 O1         -0.8033    3.5267    1.0482 O.2       1 <0>        -0.5321
     16 C12         0.0229    5.6474    0.4236 C.3       1 <0>        -0.2796
     17 C13         0.1439    6.4426    1.7251 C.3       1 <0>        -0.0901
     18 C14        -1.2085    6.3340    1.0179 C.3       1 <0>        -0.0957
     19 H1         -1.1996   -3.6311   -1.8473 H         1 <0>         0.0721
     20 H2          0.5747   -3.6520   -2.1267 H         1 <0>         0.0559
     21 H3         -0.3335   -2.1060   -2.2355 H         1 <0>         0.0638
     22 H4         -0.8619   -2.2456    0.1934 H         1 <0>         0.0854
     23 H5          0.0463   -3.7915    0.3022 H         1 <0>         0.0744
     24 H6          2.4407   -3.7567   -0.4149 H         1 <0>         0.0941
     25 H7          3.3119   -2.1918   -0.2784 H         1 <0>         0.0950
     26 H8          2.7808   -2.1081    2.1524 H         1 <0>         0.1300
     27 H9          1.9096   -3.6730    2.0159 H         1 <0>         0.1287
     28 H10         4.1770   -3.9769    2.8484 H         1 <0>         0.4618
     29 H11         4.8247   -3.1781    1.3756 H         1 <0>         0.4560
     30 H12        -0.9131   -0.5499   -0.3192 H         1 <0>         0.1291
     31 H13        -0.9414    1.9105   -0.3013 H         1 <0>         0.1369
     32 H14         3.2932    1.9556    0.2874 H         1 <0>         0.1274
     33 H15         3.3228   -0.5048    0.2651 H         1 <0>         0.1176
     34 H16         2.0108    4.0524   -0.3938 H         1 <0>         0.4346
     35 H17         0.5320    5.6575   -0.5514 H         1 <0>         0.1292
     36 H18         0.4920    5.7782    2.5297 H         1 <0>         0.1010
     37 H19         0.8650    7.2619    1.5885 H         1 <0>         0.1123
     38 H20        -1.6054    7.0636    0.2966 H         1 <0>         0.1131
     39 H21        -1.9785    5.5798    1.2379 H         1 <0>         0.1161
     40 H22         3.9535   -4.7431    1.2391 H         1 <0>         0.4561
@<TRIPOS>BOND
     1    1    2 1
     2    1   19 1
     3    1   20 1
     4    1   21 1
     5    2    3 1
     6    2   22 1
     7    2   23 1
     8    3    4 1
     9    3    7 1
    10    4    5 1
    11    4   24 1
    12    4   25 1
    13    5    6 1
    14    5   26 1
    15    5   27 1
    16    6   28 1
    17    6   29 1
    18    6   40 1
    19    7   12 ar
    20    7    8 ar
    21    8    9 ar
    22    8   30 1
    23    9   10 ar
    24    9   31 1
    25   10   11 ar
    26   10   13 1
    27   11   12 ar
    28   11   32 1
    29   12   33 1
    30   13   14 am
    31   13   34 1
    32   14   15 2
    33   14   16 1
    34   16   18 1
    35   16   17 1
    36   16   35 1
    37   17   18 1
    38   17   36 1
    39   17   37 1
    40   18   38 1
    41   18   39 1
@<TRIPOS>MOLECULE
ZINC42468676
   40    41     0     0     0
SMALL
USER_CHARGES

@<TRIPOS>ATOM
      1 C1         -0.0187    1.5258    0.0104 C.3       1 <0>        -0.1751
      2 C2          0.0021   -0.0041    0.0020 C.3       1 <0>         0.1025
      3 N1         -1.3723   -0.5112    0.0124 N.pl3     1 <0>        -0.5906
      4 C3         -2.0716   -0.7579   -1.2510 C.3       1 <0>         0.0981
      5 C4         -1.8159   -2.1971   -1.7029 C.3       1 <0>         0.0605
      6 H1         -0.7432   -2.3851   -1.7486 H         1 <0>         0.0851
      7 C5         -2.4481   -2.4301   -3.0919 C.3       1 <0>        -0.1511
      8 C6         -3.0163   -3.8693   -2.9582 C.3       1 <0>        -0.1570
      9 C7         -3.4359   -3.8824   -1.4667 C.3       1 <0>         0.0473
     10 O1         -2.4306   -3.1106   -0.7868 O.3       1 <0>        -0.3720
     11 C8         -2.0133   -0.7584    1.2220 C.ar      1 <0>         0.2950
     12 C9         -3.3172   -1.2456    1.2303 C.ar      1 <0>        -0.1783
     13 C10        -3.9538   -1.4916    2.4256 C.ar      1 <0>        -0.0089
     14 C11        -3.2899   -1.2517    3.6314 C.ar      1 <0>        -0.2338
     15 C12        -1.9812   -0.7626    3.6200 C.ar      1 <0>        -0.0048
     16 C13        -1.3477   -0.5235    2.4216 C.ar      1 <0>        -0.2032
     17 C14        -3.9705   -1.5141    4.9155 C.cat     1 <0>         0.6026
     18 N2         -3.3360   -1.2849    6.0649 N.pl3     1 <0>        -0.7750
     19 N3         -5.2190   -1.9802    4.9249 N.pl3     1 <0>        -0.7749
     20 H2          1.0039    1.9031    0.0027 H         1 <0>         0.0754
     21 H3         -0.5459    1.8868   -0.8726 H         1 <0>         0.0618
     22 H4         -0.5289    1.8773    0.9072 H         1 <0>         0.0601
     23 H5          0.5123   -0.3556   -0.8948 H         1 <0>         0.0873
     24 H6          0.5293   -0.3651    0.8851 H         1 <0>         0.0853
     25 H7         -3.1417   -0.6062   -1.1097 H         1 <0>         0.0887
     26 H8         -1.7041   -0.0678   -2.0105 H         1 <0>         0.0986
     27 H9         -3.2475   -1.7133   -3.2794 H         1 <0>         0.0815
     28 H10        -1.6917   -2.3829   -3.8753 H         1 <0>         0.0884
     29 H11        -3.8780   -4.0136   -3.6100 H         1 <0>         0.0880
     30 H12        -2.2468   -4.6154   -3.1564 H         1 <0>         0.0817
     31 H13        -4.4155   -3.4199   -1.3452 H         1 <0>         0.0605
     32 H14        -3.4491   -4.9038   -1.0864 H         1 <0>         0.0876
     33 H15        -3.8299   -1.4305    0.2979 H         1 <0>         0.1431
     34 H16        -4.9656   -1.8693    2.4314 H         1 <0>         0.1308
     35 H17        -1.4658   -0.5759    4.5505 H         1 <0>         0.1321
     36 H18        -0.3345   -0.1496    2.4121 H         1 <0>         0.1431
     37 H19        -2.4273   -0.9456    6.0581 H         1 <0>         0.4409
     38 H20        -5.6808   -2.1471    4.0883 H         1 <0>         0.4409
     39 H21        -5.6660   -2.1526    5.7683 H         1 <0>         0.4287
     40 H22        -3.7830   -1.4573    6.9084 H         1 <0>         0.4288
@<TRIPOS>BOND
     1    1    2 1
     2    1   20 1
     3    1   21 1
     4    1   22 1
     5    2    3 1
     6    2   23 1
     7    2   24 1
     8    3    4 1
     9    3   11 1
    10    4    5 1
    11    4   25 1
    12    4   26 1
    13    5    6 1
    14    5   10 1
    15    5    7 1
    16    7    8 1
    17    7   27 1
    18    7   28 1
    19    8    9 1
    20    8   29 1
    21    8   30 1
    22    9   10 1
    23    9   31 1
    24    9   32 1
    25   11   16 ar
    26   11   12 ar
    27   12   13 ar
    28   12   33 1
    29   13   14 ar
    30   13   34 1
    31   14   15 ar
    32   14   17 1
    33   15   16 ar
    34   15   35 1
    35   16   36 1
    36   17   18 2
    37   17   19 1
    38   18   37 1
    39   18   40 1
    40   19   38 1
    41   19   39 1
@<TRIPOS>MOLECULE
ZINC45138371
   33    34     0     0     0
SMALL
USER_CHARGES

@<TRIPOS>ATOM
      1 C1         -0.0187    1.5258    0.0104 C.3       1 <0>        -0.1221
      2 C2          0.0021   -0.0041    0.0020 C.3       1 <0>        -0.1194
      3 C3         -0.8252   -0.7277    1.0664 C.3       1 <0>        -0.1775
      4 C4          0.7014   -0.7075    1.1670 C.3       1 <0>         0.0749
      5 H1          1.1466   -0.0804    1.9393 H         1 <0>         0.1331
      6 N1          1.4150   -1.9531    0.8748 N.pl3     1 <0>        -1.0762
      7 S1          2.8111   -2.3177    1.6874 S.o2      1 <0>         2.7180
      8 O1          3.2422   -3.5834    1.2065 O.2       1 <0>        -0.9329
      9 O2          3.6317   -1.1592    1.6248 O.2       1 <0>        -0.9311
     10 C5          2.3843   -2.5415    3.3822 C.2       1 <0>        -0.7154
     11 C6          2.0182   -3.6758    4.0276 C.2       1 <0>        -0.0274
     12 C7          1.7255   -3.6145    5.3771 C.2       1 <0>        -0.1128
     13 C8          1.8133   -2.4219    6.0152 C.2       1 <0>        -0.2448
     14 S2          2.3293   -1.3346    4.6966 S.3       1 <0>         0.2257
     15 C9          1.5493   -2.0987    7.4633 C.3       1 <0>         0.0958
     16 N2          2.7909   -2.2516    8.2334 N.4       1 <0>        -0.6381
     17 C10         0.1021   -0.6551   -1.3790 C.3       1 <0>        -0.1231
     18 H2          1.0039    1.9031    0.0027 H         1 <0>         0.0662
     19 H3         -0.5459    1.8868   -0.8726 H         1 <0>         0.0695
     20 H4         -0.5289    1.8773    0.9072 H         1 <0>         0.0603
     21 H5         -1.3842   -0.1138    1.7726 H         1 <0>         0.1059
     22 H6         -1.2985   -1.6677    0.7829 H         1 <0>         0.1029
     23 H7          1.0697   -2.5644    0.2054 H         1 <0>         0.4263
     24 H8          1.9557   -4.6135    3.4952 H         1 <0>         0.1633
     25 H9          1.4310   -4.5035    5.9150 H         1 <0>         0.1558
     26 H10         1.1938   -1.0717    7.5474 H         1 <0>         0.1509
     27 H11         0.7927   -2.7783    7.8552 H         1 <0>         0.1575
     28 H12         3.1200   -3.2023    8.1555 H         1 <0>         0.4388
     29 H13         3.4914   -1.6225    7.8706 H         1 <0>         0.4375
     30 H14         1.1494   -0.7246   -1.6729 H         1 <0>         0.0656
     31 H15        -0.3320   -1.6542   -1.3419 H         1 <0>         0.0584
     32 H16        -0.4399   -0.0502   -2.1059 H         1 <0>         0.0700
     33 H17         2.6142   -2.0352    9.2029 H         1 <0>         0.4446
@<TRIPOS>BOND
     1    1    2 1
     2    1   18 1
     3    1   19 1
     4    1   20 1
     5    2    4 1
     6    2    3 1
     7    2   17 1
     8    3    4 1
     9    3   21 1
    10    3   22 1
    11    4    5 1
    12    4    6 1
    13    6    7 1
    14    6   23 1
    15    7    8 2
    16    7    9 2
    17    7   10 1
    18   10   14 1
    19   10   11 2
    20   11   12 1
    21   11   24 1
    22   12   13 2
    23   12   25 1
    24   13   14 1
    25   13   15 1
    26   15   16 1
    27   15   26 1
    28   15   27 1
    29   16   28 1
    30   16   29 1
    31   16   33 1
    32   17   30 1
    33   17   31 1
    34   17   32 1
@<TRIPOS>MOLECULE
ZINC52905041
   35    36     0     0     0
SMALL
USER_CHARGES

@<TRIPOS>ATOM
      1 C1         -0.0178    1.4608    0.0101 C.3       1 <0>         0.1028
      2 N1          0.0021   -0.0041    0.0020 N.pl3     1 <0>        -0.6835
      3 C2          0.0241   -0.7433    1.2666 C.3       1 <0>         0.1789
      4 C3         -1.3889   -1.0161    1.7137 C.ar      1 <0>        -0.1725
      5 C4         -2.0576   -0.1082    2.5209 C.ar      1 <0>        -0.0563
      6 C5         -3.3563   -0.4009    2.9078 C.ar      1 <0>        -0.1672
      7 C6         -3.9373   -1.5795    2.4791 C.ar      1 <0>         0.0981
      8 N2         -3.2710   -2.4200    1.7122 N.ar      1 <0>        -0.4884
      9 C7         -2.0366   -2.1714    1.3198 C.ar      1 <0>         0.0922
     10 C8          0.0000   -0.6922   -1.2050 C.ar      1 <0>         0.2410
     11 C9          1.1999   -1.0266   -1.8199 C.ar      1 <0>        -0.1148
     12 C10         1.1962   -1.7101   -3.0188 C.ar      1 <0>        -0.0415
     13 C11         0.0000   -2.0677   -3.6187 C.ar      1 <0>        -0.1042
     14 C12        -1.2018   -1.7442   -3.0236 C.ar      1 <0>         0.0100
     15 C13        -1.2139   -1.0579   -1.8059 C.ar      1 <0>        -0.1726
     16 C14        -2.4950   -0.7142   -1.1601 C.cat     1 <0>         0.6138
     17 N3         -3.2984   -1.6812   -0.7164 N.pl3     1 <0>        -0.7383
     18 N4         -2.8494    0.5635   -1.0203 N.pl3     1 <0>        -0.7499
     19 Cl1        -2.6968   -2.1954   -3.7821 Cl        1 <0>        -0.0346
     20 H1          1.0048    1.8381    0.0023 H         1 <0>         0.0610
     21 H2         -0.5450    1.8219   -0.8730 H         1 <0>         0.0521
     22 H3         -0.5280    1.8123    0.9069 H         1 <0>         0.0712
     23 H4          0.5496   -1.6879    1.1262 H         1 <0>         0.0884
     24 H5          0.5371   -0.1514    2.0246 H         1 <0>         0.0961
     25 H6         -1.5779    0.8050    2.8409 H         1 <0>         0.1389
     26 H7         -3.9069    0.2832    3.5365 H         1 <0>         0.1437
     27 H8         -4.9487   -1.8149    2.7761 H         1 <0>         0.1655
     28 H9         -1.5245   -2.8813    0.6872 H         1 <0>         0.1524
     29 H10         2.1371   -0.7509   -1.3592 H         1 <0>         0.1530
     30 H11         2.1320   -1.9675   -3.4925 H         1 <0>         0.1559
     31 H12         0.0082   -2.6022   -4.5572 H         1 <0>         0.1575
     32 H13        -3.0406   -2.6107   -0.8181 H         1 <0>         0.4493
     33 H14        -2.2648    1.2670   -1.3432 H         1 <0>         0.4430
     34 H15        -3.6917    0.7895   -0.5957 H         1 <0>         0.4291
     35 H16        -4.1408   -1.4552   -0.2918 H         1 <0>         0.4301
@<TRIPOS>BOND
     1    1    2 1
     2    1   20 1
     3    1   21 1
     4    1   22 1
     5    2    3 1
     6    2   10 1
     7    3    4 1
     8    3   23 1
     9    3   24 1
    10    4    9 ar
    11    4    5 ar
    12    5    6 ar
    13    5   25 1
    14    6    7 ar
    15    6   26 1
    16    7    8 ar
    17    7   27 1
    18    8    9 ar
    19    9   28 1
    20   10   15 ar
    21   10   11 ar
    22   11   12 ar
    23   11   29 1
    24   12   13 ar
    25   12   30 1
    26   13   14 ar
    27   13   31 1
    28   14   15 ar
    29   14   19 1
    30   15   16 1
    31   16   17 2
    32   16   18 1
    33   17   32 1
    34   17   35 1
    35   18   33 1
    36   18   34 1
@<TRIPOS>MOLECULE
ZINC37140396
   46    47     0     0     0
SMALL
USER_CHARGES

@<TRIPOS>ATOM
      1 C1         -0.0187    1.5258    0.0104 C.3       1 <0>        -0.1617
      2 C2          0.0021   -0.0041    0.0020 C.3       1 <0>        -0.0861
      3 H1          0.5123   -0.3556   -0.8948 H         1 <0>         0.0922
      4 C3         -1.4333   -0.5336    0.0129 C.3       1 <0>        -0.1264
      5 C4         -2.1494   -0.0402    1.2717 C.3       1 <0>        -0.1195
      6 C5         -1.4095   -0.5471    2.5112 C.3       1 <0>        -0.1382
      7 C6          0.0259   -0.0175    2.5003 C.3       1 <0>         0.0174
      8 H2          0.0111    1.0724    2.5063 H         1 <0>         0.1421
      9 C7          0.7421   -0.5109    1.2415 C.3       1 <0>        -0.1356
     10 N1          0.7364   -0.5041    3.6905 N.4       1 <0>        -0.5046
     11 C8          0.1207    0.0667    4.8959 C.3       1 <0>         0.0186
     12 C9          0.3237    1.5844    4.9044 C.3       1 <0>        -0.1346
     13 C10        -0.2661    2.1657    6.1914 C.3       1 <0>         0.0565
     14 N2          0.3965    1.5587    7.3528 N.3       1 <0>        -0.5235
     15 C11         0.1756    0.1075    7.3917 C.3       1 <0>         0.0499
     16 C12         0.7785   -0.5354    6.1406 C.3       1 <0>        -0.1333
     17 C13        -0.0461    2.1922    8.6021 C.3       1 <0>         0.0330
     18 C14         0.8237    1.7221    9.7394 C.2       1 <0>         0.5169
     19 O1          1.7237    0.9366    9.5299 O.2       1 <0>        -0.5287
     20 N3          0.6014    2.1745   10.9893 N.am      1 <0>        -0.8529
     21 H3          1.0039    1.9031    0.0027 H         1 <0>         0.0615
     22 H4         -0.5459    1.8868   -0.8726 H         1 <0>         0.0691
     23 H5         -0.5289    1.8773    0.9072 H         1 <0>         0.0559
     24 H6         -1.9605   -0.1726   -0.8702 H         1 <0>         0.0797
     25 H7         -1.4185   -1.6235    0.0069 H         1 <0>         0.0707
     26 H8         -2.1642    1.0497    1.2777 H         1 <0>         0.0770
     27 H9         -3.1720   -0.4175    1.2794 H         1 <0>         0.0839
     28 H10        -1.9196   -0.1955    3.4080 H         1 <0>         0.0841
     29 H11        -1.3947   -1.6369    2.5052 H         1 <0>         0.0869
     30 H12         0.7568   -1.6008    1.2356 H         1 <0>         0.0874
     31 H13         1.7647   -0.1336    1.2338 H         1 <0>         0.0879
     32 H14         0.6793   -1.5108    3.7281 H         1 <0>         0.4255
     33 H15        -0.9456   -0.1592    4.9021 H         1 <0>         0.1376
     34 H16         1.3892    1.8093    4.8584 H         1 <0>         0.0982
     35 H17        -0.1791    2.0236    4.0429 H         1 <0>         0.0919
     36 H18        -0.1105    3.2445    6.2073 H         1 <0>         0.0987
     37 H19        -1.3343    1.9524    6.2301 H         1 <0>         0.0482
     38 H20         0.6520   -0.3088    8.2794 H         1 <0>         0.1149
     39 H21        -0.8947   -0.0962    7.4248 H         1 <0>         0.0421
     40 H22         0.6007   -1.6105    6.1622 H         1 <0>         0.0927
     41 H23         1.8512   -0.3438    6.1140 H         1 <0>         0.0986
     42 H24         0.0328    3.2753    8.5080 H         1 <0>         0.1135
     43 H25        -1.0826    1.9193    8.8005 H         1 <0>         0.0726
     44 H26        -0.1184    2.8027   11.1569 H         1 <0>         0.4041
     45 H27         1.1613    1.8719   11.7214 H         1 <0>         0.4085
     46 H28         1.7045   -0.2238    3.6423 H         1 <0>         0.4270
@<TRIPOS>BOND
     1    1    2 1
     2    1   21 1
     3    1   22 1
     4    1   23 1
     5    2    3 1
     6    2    9 1
     7    2    4 1
     8    4    5 1
     9    4   24 1
    10    4   25 1
    11    5    6 1
    12    5   26 1
    13    5   27 1
    14    6    7 1
    15    6   28 1
    16    6   29 1
    17    7    8 1
    18    7    9 1
    19    7   10 1
    20    9   30 1
    21    9   31 1
    22   10   11 1
    23   10   32 1
    24   10   46 1
    25   11   16 1
    26   11   12 1
    27   11   33 1
    28   12   13 1
    29   12   34 1
    30   12   35 1
    31   13   14 1
    32   13   36 1
    33   13   37 1
    34   14   15 1
    35   14   17 1
    36   15   16 1
    37   15   38 1
    38   15   39 1
    39   16   40 1
    40   16   41 1
    41   17   18 1
    42   17   42 1
    43   17   43 1
    44   18   19 2
    45   18   20 am
    46   20   44 1
    47   20   45 1
@<TRIPOS>MOLECULE
ZINC04517109
   56    59     0     0     0
SMALL
USER_CHARGES
tert-butyl amino-dimethyl-dioxo-BLAHcarboxylate
@<TRIPOS>ATOM
      1 C1         -1.3228    2.9037   -3.5791 C.3       1 <0>        -0.1615
      2 C2         -0.7683    4.3189   -3.7544 C.3       1 <0>        -0.0542
      3 C3         -1.1217    5.1585   -2.5217 C.3       1 <0>        -0.0699
      4 C4         -0.4069    4.5644   -1.3251 C.2       1 <0>         0.2059
      5 C5          0.7526    3.8648   -1.4640 C.2       1 <0>        -0.2829
      6 C6          1.3806    3.6429   -2.6985 C.2       1 <0>         0.4269
      7 O1          2.3992    2.9851   -2.7745 O.2       1 <0>        -0.4587
      8 C7          0.7490    4.2495   -3.9326 C.3       1 <0>        -0.1467
      9 C8          1.1581    3.4286   -0.0868 C.3       1 <0>         0.1099
     10 C9          2.4863    4.0212    0.2899 C.ar      1 <0>        -0.1080
     11 C10         2.5786    5.3704    0.5789 C.ar      1 <0>        -0.0800
     12 C11         3.7958    5.9253    0.9246 C.ar      1 <0>        -0.1281
     13 C12         4.9267    5.1316    0.9852 C.ar      1 <0>        -0.0826
     14 C13         4.8400    3.7842    0.6984 C.ar      1 <0>        -0.1228
     15 C14         3.6182    3.2224    0.3484 C.ar      1 <0>         0.1389
     16 O2          3.5499    1.8980    0.0683 O.3       1 <0>        -0.2381
     17 C15         2.3690    1.2617    0.0949 C.2       1 <0>         0.4591
     18 C16         1.1899    1.9329    0.0179 C.2       1 <0>        -0.3740
     19 C17        -0.0155    1.2166    0.0425 C.2       1 <0>         0.5418
     20 O3         -0.6037    0.9782   -0.9973 O.2       1 <0>        -0.4872
     21 O4         -0.5271    0.7957    1.2196 O.3       1 <0>        -0.3384
     22 C18        -1.7611    0.0769    1.1706 C.3       1 <0>         0.1113
     23 C19        -1.5827   -1.1857    0.3250 C.3       1 <0>        -0.1872
     24 C20        -2.1800   -0.3144    2.5892 C.3       1 <0>        -0.1405
     25 C21        -2.8419    0.9610    0.5453 C.3       1 <0>        -0.1832
     26 N1          2.3515   -0.1035    0.1982 N.pl3     1 <0>        -0.8278
     27 C22         0.0667    3.9920    0.8000 C.2       1 <0>         0.5288
     28 O5         -0.0201    3.8883    2.0049 O.2       1 <0>        -0.4528
     29 N2         -0.7893    4.6320   -0.0232 N.am      1 <0>        -0.6527
     30 C23        -1.3920    4.9568   -4.9974 C.3       1 <0>        -0.1426
     31 H1         -2.4061    2.9492   -3.4673 H         1 <0>         0.0565
     32 H2         -1.0727    2.3045   -4.4546 H         1 <0>         0.0597
     33 H3         -0.8846    2.4493   -2.6905 H         1 <0>         0.0818
     34 H4         -2.1988    5.1340   -2.3563 H         1 <0>         0.0954
     35 H5         -0.7959    6.1879   -2.6711 H         1 <0>         0.1064
     36 H6          0.9657    3.6830   -4.7277 H         1 <0>         0.0875
     37 H7          1.1426    5.2546   -4.0846 H         1 <0>         0.0992
     38 H8          1.6967    5.9923    0.5339 H         1 <0>         0.1221
     39 H9          3.8641    6.9797    1.1481 H         1 <0>         0.1335
     40 H10         5.8775    5.5660    1.2564 H         1 <0>         0.1400
     41 H11         5.7236    3.1652    0.7465 H         1 <0>         0.1408
     42 H12        -0.8127   -1.8156    0.7706 H         1 <0>         0.0593
     43 H13        -2.5240   -1.7340    0.2877 H         1 <0>         0.0724
     44 H14        -1.2843   -0.9070   -0.6856 H         1 <0>         0.0841
     45 H15        -2.3072    0.5851    3.1916 H         1 <0>         0.0665
     46 H16        -3.1214   -0.8627    2.5519 H         1 <0>         0.0772
     47 H17        -1.4101   -0.9443    3.0347 H         1 <0>         0.0659
     48 H18        -2.5435    1.2397   -0.4653 H         1 <0>         0.0826
     49 H19        -3.7832    0.4127    0.5079 H         1 <0>         0.0704
     50 H20        -2.9690    1.8605    1.1477 H         1 <0>         0.0569
     51 H21         1.5117   -0.5842    0.1307 H         1 <0>         0.4223
     52 H22         3.1789   -0.5899    0.3388 H         1 <0>         0.4126
     53 H23        -1.5887    5.0897    0.2807 H         1 <0>         0.4170
     54 H24        -1.0032    5.9675   -5.1210 H         1 <0>         0.0607
     55 H25        -1.1420    4.3614   -5.8755 H         1 <0>         0.0645
     56 H26        -2.4751    4.9958   -4.8811 H         1 <0>         0.0621
@<TRIPOS>BOND
     1    1    2 1
     2    1   31 1
     3    1   32 1
     4    1   33 1
     5    2    8 1
     6    2    3 1
     7    2   30 1
     8    3    4 1
     9    3   34 1
    10    3   35 1
    11    4   29 1
    12    4    5 2
    13    5    6 1
    14    5    9 1
    15    6    7 2
    16    6    8 1
    17    8   36 1
    18    8   37 1
    19    9   18 1
    20    9   10 1
    21    9   27 1
    22   10   15 ar
    23   10   11 ar
    24   11   12 ar
    25   11   38 1
    26   12   13 ar
    27   12   39 1
    28   13   14 ar
    29   13   40 1
    30   14   15 ar
    31   14   41 1
    32   15   16 1
    33   16   17 1
    34   17   18 2
    35   17   26 1
    36   18   19 1
    37   19   20 2
    38   19   21 1
    39   21   22 1
    40   22   23 1
    41   22   24 1
    42   22   25 1
    43   23   42 1
    44   23   43 1
    45   23   44 1
    46   24   45 1
    47   24   46 1
    48   24   47 1
    49   25   48 1
    50   25   49 1
    51   25   50 1
    52   26   51 1
    53   26   52 1
    54   27   28 2
    55   27   29 am
    56   29   53 1
    57   30   54 1
    58   30   55 1
    59   30   56 1
@<TRIPOS>MOLECULE
ZINC08869305
   52    55     0     0     0
SMALL
USER_CHARGES
N-(8-carbamoyl-6-thiabicyclo[3.3.0]octa-7,9-dien-7-yl)-1-(p-tolylsulfonyl)pyrrolidine-2-carboxamide
@<TRIPOS>ATOM
      1 C1         10.0309    9.2870   -4.3850 C.3       1 <0>        -0.1268
      2 C2          9.0419    8.8445   -3.3376 C.ar      1 <0>        -0.0259
      3 C3          8.1149    7.8625   -3.6332 C.ar      1 <0>        -0.1410
      4 C4          7.2083    7.4560   -2.6721 C.ar      1 <0>        -0.0160
      5 C5          7.2289    8.0312   -1.4153 C.ar      1 <0>        -0.6871
      6 C6          8.1524    9.0169   -1.1213 C.ar      1 <0>        -0.0160
      7 C7          9.0619    9.4204   -2.0810 C.ar      1 <0>        -0.1411
      8 S1          6.0733    7.5130   -0.1902 S.o2      1 <0>         2.7025
      9 O1          5.0041    6.8820   -0.8815 O.2       1 <0>        -0.9423
     10 O2          5.8721    8.6232    0.6737 O.2       1 <0>        -0.9407
     11 N1          6.8116    6.3379    0.7134 N.pl3     1 <0>        -0.9919
     12 C8          7.7109    6.5721    1.8579 C.3       1 <0>         0.1174
     13 C9          8.5856    5.2964    1.9424 C.3       1 <0>        -0.1266
     14 C10         7.5643    4.1893    1.5601 C.3       1 <0>        -0.1176
     15 C11         6.6794    4.8883    0.5066 C.3       1 <0>         0.1447
     16 H1          7.0176    4.6245   -0.4955 H         1 <0>         0.1049
     17 C12         5.2420    4.4737    0.6879 C.2       1 <0>         0.4998
     18 O3          4.5077    5.1263    1.3992 O.2       1 <0>        -0.4825
     19 N2          4.7724    3.3777    0.0598 N.am      1 <0>        -0.6135
     20 C13         3.4498    2.9962    0.2266 C.2       1 <0>         0.0731
     21 C14         2.7901    1.9133   -0.3289 C.2       1 <0>        -0.2177
     22 C15         1.3789    1.7333    0.0102 C.2       1 <0>        -0.0944
     23 C16         0.8693    2.6583    0.8434 C.2       1 <0>        -0.2355
     24 S2          2.2225    3.7584    1.1795 S.3       1 <0>         0.2695
     25 C17        -0.5824    2.4048    1.1474 C.3       1 <0>        -0.0321
     26 C18        -0.8164    0.9358    0.7310 C.3       1 <0>        -0.1156
     27 C19         0.2743    0.7353   -0.3398 C.3       1 <0>        -0.0600
     28 C20         3.4813    0.9804   -1.2243 C.2       1 <0>         0.5841
     29 O4          3.4937    1.1848   -2.4241 O.2       1 <0>        -0.5326
     30 N3          4.1028   -0.1034   -0.7189 N.am      1 <0>        -0.8483
     31 H2          9.6089   10.1132   -4.9572 H         1 <0>         0.0814
     32 H3         10.9514    9.6130   -3.9009 H         1 <0>         0.0742
     33 H4         10.2477    8.4547   -5.0546 H         1 <0>         0.0740
     34 H5          8.0993    7.4126   -4.6149 H         1 <0>         0.1347
     35 H6          6.4841    6.6888   -2.9030 H         1 <0>         0.1402
     36 H7          8.1656    9.4694   -0.1408 H         1 <0>         0.1390
     37 H8          9.7863   10.1873   -1.8500 H         1 <0>         0.1349
     38 H9          8.3341    7.4481    1.6776 H         1 <0>         0.0828
     39 H10         7.1339    6.6999    2.7737 H         1 <0>         0.0822
     40 H11         9.4039    5.3353    1.2235 H         1 <0>         0.0833
     41 H12         8.9637    5.1483    2.9540 H         1 <0>         0.0938
     42 H13         6.9724    3.8952    2.4269 H         1 <0>         0.0877
     43 H14         8.0709    3.3267    1.1272 H         1 <0>         0.0970
     44 H15         5.3597    2.8557   -0.5091 H         1 <0>         0.4194
     45 H16        -1.2156    3.0714    0.5619 H         1 <0>         0.0853
     46 H17        -0.7759    2.5334    2.2124 H         1 <0>         0.0795
     47 H18        -0.6637    0.2622    1.5743 H         1 <0>         0.0768
     48 H19        -1.8111    0.8048    0.3048 H         1 <0>         0.0841
     49 H20         0.6599   -0.2835   -0.2993 H         1 <0>         0.0713
     50 H21        -0.1264    0.9485   -1.3308 H         1 <0>         0.0815
     51 H22         4.0929   -0.2663    0.2373 H         1 <0>         0.4034
     52 H23         4.5600   -0.7206   -1.3112 H         1 <0>         0.4027
@<TRIPOS>BOND
     1    1    2 1
     2    1   31 1
     3    1   32 1
     4    1   33 1
     5    2    7 ar
     6    2    3 ar
     7    3    4 ar
     8    3   34 1
     9    4    5 ar
    10    4   35 1
    11    5    6 ar
    12    5    8 1
    13    6    7 ar
    14    6   36 1
    15    7   37 1
    16    8    9 2
    17    8   10 2
    18    8   11 1
    19   11   15 1
    20   11   12 1
    21   12   13 1
    22   12   38 1
    23   12   39 1
    24   13   14 1
    25   13   40 1
    26   13   41 1
    27   14   15 1
    28   14   42 1
    29   14   43 1
    30   15   16 1
    31   15   17 1
    32   17   18 2
    33   17   19 am
    34   19   20 1
    35   19   44 1
    36   20   24 1
    37   20   21 2
    38   21   22 1
    39   21   28 1
    40   22   27 1
    41   22   23 2
    42   23   24 1
    43   23   25 1
    44   25   26 1
    45   25   45 1
    46   25   46 1
    47   26   27 1
    48   26   47 1
    49   26   48 1
    50   27   49 1
    51   27   50 1
    52   28   29 2
    53   28   30 am
    54   30   51 1
    55   30   52 1
@<TRIPOS>MOLECULE
ZINC13991425
   35    35     0     0     0
SMALL
USER_CHARGES
3-[[2-(2,4-dibromo-6-methyl-phenoxy)acetyl]amino]-1-ethyl-thiourea
@<TRIPOS>ATOM
      1 C1          2.3417   -0.5388   -6.1600 C.3       1 <0>        -0.1703
      2 C2          1.0846    0.3246   -6.2838 C.3       1 <0>         0.1159
      3 N1          0.5921    0.6645   -4.9466 N.pl3     1 <0>        -0.6841
      4 C3         -0.5129    1.4237   -4.8083 C.2       1 <0>         0.5584
      5 S1         -1.3409    1.9908   -6.1952 S.2       1 <0>        -0.5821
      6 N2         -0.9661    1.7364   -3.5781 N.pl3     1 <0>        -0.4684
      7 N3         -0.2884    1.2723   -2.4431 N.am      1 <0>        -0.5490
      8 C4         -0.7416    1.5850   -1.2129 C.2       1 <0>         0.5228
      9 O1         -1.7359    2.2682   -1.0884 O.2       1 <0>        -0.4862
     10 C5         -0.0127    1.0858    0.0080 C.3       1 <0>         0.0555
     11 O2         -0.6816    1.5467    1.1837 O.3       1 <0>        -0.2920
     12 C6         -0.1487    1.1820    2.3799 C.ar      1 <0>         0.1270
     13 C7          0.8035    1.9854    2.9899 C.ar      1 <0>        -0.0808
     14 C8          1.3435    1.6134    4.2058 C.ar      1 <0>        -0.0654
     15 C9          0.9356    0.4403    4.8155 C.ar      1 <0>        -0.0836
     16 C10        -0.0137   -0.3627    4.2095 C.ar      1 <0>        -0.0573
     17 C11        -0.5606    0.0083    2.9953 C.ar      1 <0>        -0.1004
     18 Br1        -1.8641   -1.0856    2.1707 Br        1 <0>        -0.0172
     19 Br2         1.6765   -0.0656    6.4802 Br        1 <0>        -0.0253
     20 C12         1.2488    3.2631    2.3264 C.3       1 <0>        -0.1135
     21 H1          2.7081   -0.7917   -7.1549 H         1 <0>         0.0868
     22 H2          3.1101    0.0138   -5.6193 H         1 <0>         0.0629
     23 H3          2.1023   -1.4534   -5.6176 H         1 <0>         0.0630
     24 H4          0.3161   -0.2279   -6.8244 H         1 <0>         0.0921
     25 H5          1.3240    1.2393   -6.8262 H         1 <0>         0.0922
     26 H6          1.0612    0.3432   -4.1607 H         1 <0>         0.3904
     27 H7         -1.7613    2.2828   -3.4786 H         1 <0>         0.4603
     28 H8          0.5068    0.7259   -2.5426 H         1 <0>         0.4205
     29 H9          0.0021   -0.0041    0.0020 H         1 <0>         0.0975
     30 H10         1.0099    1.4631    0.0003 H         1 <0>         0.0985
     31 H11         2.0846    2.2390    4.6810 H         1 <0>         0.1484
     32 H12        -0.3305   -1.2782    4.6869 H         1 <0>         0.1504
     33 H13         0.6111    4.0841    2.6540 H         1 <0>         0.0858
     34 H14         2.2824    3.4740    2.6011 H         1 <0>         0.0772
     35 H15         1.1753    3.1553    1.2443 H         1 <0>         0.0700
@<TRIPOS>BOND
     1    1    2 1
     2    1   21 1
     3    1   22 1
     4    1   23 1
     5    2    3 1
     6    2   24 1
     7    2   25 1
     8    3    4 1
     9    3   26 1
    10    4    5 2
    11    4    6 1
    12    6    7 1
    13    6   27 1
    14    7    8 am
    15    7   28 1
    16    8    9 2
    17    8   10 1
    18   10   11 1
    19   10   29 1
    20   10   30 1
    21   11   12 1
    22   12   17 ar
    23   12   13 ar
    24   13   14 ar
    25   13   20 1
    26   14   15 ar
    27   14   31 1
    28   15   16 ar
    29   15   19 1
    30   16   17 ar
    31   16   32 1
    32   17   18 1
    33   20   33 1
    34   20   34 1
    35   20   35 1
@<TRIPOS>MOLECULE
ZINC22560239
   43    44     0     0     0
SMALL
USER_CHARGES
[(1S)-2-[(4-carbamoylphenyl)amino]-1-methyl-2-oxo-ethyl] (E)-3-(4-bromophenyl)prop-2-enoate
@<TRIPOS>ATOM
      1 C1          1.8720   -4.8609    1.0335 C.3       1 <0>        -0.1691
      2 C2          2.4077   -4.2416   -0.2590 C.3       1 <0>         0.0715
      3 H1          1.8229   -4.5589   -1.1350 H         1 <0>         0.1170
      4 C3          2.3998   -2.7396   -0.1373 C.2       1 <0>         0.5200
      5 O1          3.4453   -2.1251   -0.1442 O.2       1 <0>        -0.4917
      6 N1          1.2307   -2.0791   -0.0209 N.am      1 <0>        -0.6820
      7 C4          1.2148   -0.6848   -0.0190 C.ar      1 <0>         0.1802
      8 C5          2.1410    0.0209   -0.7805 C.ar      1 <0>        -0.1328
      9 C6          2.1281    1.3975   -0.7809 C.ar      1 <0>        -0.0367
     10 C7          1.1833    2.0861   -0.0152 C.ar      1 <0>        -0.1553
     11 C8          0.2547    1.3741    0.7489 C.ar      1 <0>        -0.0643
     12 C9          0.2731   -0.0024    0.7447 C.ar      1 <0>        -0.1538
     13 C10         1.1668    3.5620   -0.0129 C.2       1 <0>         0.5642
     14 O2          1.9758    4.1800   -0.6775 O.2       1 <0>        -0.5479
     15 N2          0.2549    4.2245    0.7261 N.am      1 <0>        -0.8745
     16 O3          3.7441   -4.6941   -0.4856 O.3       1 <0>        -0.3239
     17 C11         3.8941   -5.8244   -1.2067 C.2       1 <0>         0.5028
     18 O4          2.9158   -6.4093   -1.6311 O.2       1 <0>        -0.5074
     19 C12         5.2325   -6.3463   -1.4780 C.2       1 <0>        -0.1920
     20 C13         5.3825   -7.4769   -2.1993 C.2       1 <0>        -0.0045
     21 C14         6.7295   -8.0021   -2.4723 C.ar      1 <0>        -0.0683
     22 C15         7.8572   -7.3290   -1.9908 C.ar      1 <0>        -0.0908
     23 C16         9.1158   -7.8302   -2.2456 C.ar      1 <0>        -0.0925
     24 C17         9.2658   -8.9911   -2.9863 C.ar      1 <0>        -0.0770
     25 C18         8.1540   -9.6599   -3.4713 C.ar      1 <0>        -0.0940
     26 C19         6.8889   -9.1738   -3.2196 C.ar      1 <0>        -0.0834
     27 Br1        10.9971   -9.6657   -3.3377 Br        1 <0>        -0.0415
     28 H2          1.8778   -5.9573    0.9446 H         1 <0>         0.0805
     29 H3          0.8433   -4.5126    1.2081 H         1 <0>         0.0833
     30 H4          2.5098   -4.5580    1.8770 H         1 <0>         0.0780
     31 H5          0.2891   -2.6400    0.0726 H         1 <0>         0.4398
     32 H6          2.8707   -0.5118   -1.3722 H         1 <0>         0.1402
     33 H7          2.8502    1.9448   -1.3687 H         1 <0>         0.1403
     34 H8         -0.4768    1.9032    1.3416 H         1 <0>         0.1312
     35 H9         -0.4445   -0.5532    1.3347 H         1 <0>         0.1344
     36 H10         0.2425    5.3244    0.7279 H         1 <0>         0.4267
     37 H11        -0.4770    3.6653    1.3275 H         1 <0>         0.4170
     38 H12         6.1173   -5.8173   -1.0941 H         1 <0>         0.1497
     39 H13         4.4977   -8.0059   -2.5832 H         1 <0>         0.1470
     40 H14         7.7420   -6.4212   -1.4172 H         1 <0>         0.1406
     41 H15         9.9872   -7.3141   -1.8707 H         1 <0>         0.1394
     42 H16         8.2786  -10.5642   -4.0485 H         1 <0>         0.1394
     43 H17         6.0229   -9.6961   -3.5987 H         1 <0>         0.1403
@<TRIPOS>BOND
     1    1    2 1
     2    1   28 1
     3    1   29 1
     4    1   30 1
     5    2    3 1
     6    2    4 1
     7    2   16 1
     8    4    5 2
     9    4    6 am
    10    6    7 1
    11    6   31 1
    12    7   12 ar
    13    7    8 ar
    14    8    9 ar
    15    8   32 1
    16    9   10 ar
    17    9   33 1
    18   10   11 ar
    19   10   13 1
    20   11   12 ar
    21   11   34 1
    22   12   35 1
    23   13   14 2
    24   13   15 am
    25   15   36 1
    26   15   37 1
    27   16   17 1
    28   17   18 2
    29   17   19 1
    30   19   20 2
    31   19   38 1
    32   20   21 1
    33   20   39 1
    34   21   26 ar
    35   21   22 ar
    36   22   23 ar
    37   22   40 1
    38   23   24 ar
    39   23   41 1
    40   24   25 ar
    41   24   27 1
    42   25   26 ar
    43   25   42 1
    44   26   43 1
@<TRIPOS>MOLECULE
ZINC41547823
   51    54     0     0     0
SMALL
USER_CHARGES

@<TRIPOS>ATOM
      1 C1         -0.0184    1.5028    0.0103 C.3       1 <0>        -0.1162
      2 C2          0.0021   -0.0041    0.0020 C.ar      1 <0>        -0.0700
      3 C3          0.0058   -0.6869   -1.2004 C.ar      1 <0>        -0.1132
      4 C4          0.0186   -2.0697   -1.2161 C.ar      1 <0>        -0.0962
      5 C5          0.0310   -2.7733   -0.0238 C.ar      1 <0>         0.0677
      6 C6          0.0383   -2.0854    1.1876 C.ar      1 <0>         0.1041
      7 C7          0.0229   -0.6998    1.1967 C.ar      1 <0>        -0.1274
      8 N1          0.0857   -2.8048    2.3895 N.am      1 <0>        -0.6599
      9 C8          0.3418   -4.1293    2.3547 C.2       1 <0>         0.5006
     10 O1          0.2787   -4.7885    3.3709 O.2       1 <0>        -0.4590
     11 C9          0.7062   -4.7866    1.0476 C.3       1 <0>         0.0896
     12 O2          0.0253   -4.1334   -0.0260 O.3       1 <0>        -0.2943
     13 C10         2.2171   -4.6838    0.8297 C.3       1 <0>        -0.1674
     14 C11         0.3038   -6.2384    1.0870 C.2       1 <0>         0.5369
     15 O3          0.2067   -6.8121    2.1512 O.2       1 <0>        -0.4843
     16 N2          0.0518   -6.8992   -0.0603 N.am      1 <0>        -0.7153
     17 C12        -0.3394   -8.3105   -0.0219 C.3       1 <0>         0.1219
     18 C13        -0.5647   -8.8162   -1.4482 C.3       1 <0>        -0.0523
     19 C14        -0.9670  -10.2680   -1.4088 C.2       1 <0>        -0.1726
     20 C15        -0.1418  -11.3263   -1.4434 C.2       1 <0>         0.1118
     21 N3         -0.8668  -12.4849   -1.3891 N.pl3     1 <0>        -0.5808
     22 H1         -0.4906  -13.3789   -1.3996 H         1 <0>         0.4218
     23 C16        -2.2125  -12.1921   -1.3162 C.ar      1 <0>         0.0547
     24 C17        -2.3322  -10.7914   -1.3191 C.ar      1 <0>        -0.0443
     25 C18        -3.5952  -10.1986   -1.2472 C.ar      1 <0>        -0.1161
     26 C19        -4.7185  -10.9933   -1.1701 C.ar      1 <0>         0.1047
     27 C20        -4.5999  -12.3782   -1.1636 C.ar      1 <0>        -0.1704
     28 C21        -3.3599  -12.9776   -1.2423 C.ar      1 <0>         0.1234
     29 F1         -3.2580  -14.3247   -1.2330 F         1 <0>        -0.1334
     30 F2         -5.9413  -10.4234   -1.1000 F         1 <0>        -0.1316
     31 C22         1.3608  -11.2493   -1.5298 C.3       1 <0>        -0.1010
     32 H2          1.0042    1.8801    0.0026 H         1 <0>         0.0746
     33 H3         -0.5455    1.8639   -0.8728 H         1 <0>         0.0715
     34 H4         -0.5286    1.8543    0.9071 H         1 <0>         0.0688
     35 H5         -0.0018   -0.1383   -2.1307 H         1 <0>         0.1359
     36 H6          0.0193   -2.5999   -2.1570 H         1 <0>         0.1416
     37 H7          0.0229   -0.1646    2.1348 H         1 <0>         0.1344
     38 H8         -0.0634   -2.3558    3.2364 H         1 <0>         0.4193
     39 H9          2.7369   -5.1851    1.6462 H         1 <0>         0.0895
     40 H10         2.4811   -5.1588   -0.1151 H         1 <0>         0.0913
     41 H11         2.5097   -3.6341    0.8029 H         1 <0>         0.0799
     42 H12         0.1294   -6.4404   -0.9113 H         1 <0>         0.4073
     43 H13         0.4512   -8.8940    0.4498 H         1 <0>         0.0726
     44 H14        -1.2606   -8.4168    0.5510 H         1 <0>         0.0729
     45 H15        -1.3553   -8.2328   -1.9200 H         1 <0>         0.0820
     46 H16         0.3565   -8.7100   -2.0211 H         1 <0>         0.0817
     47 H17        -3.6909   -9.1228   -1.2517 H         1 <0>         0.1432
     48 H18        -5.4872  -12.9908   -1.1028 H         1 <0>         0.1527
     49 H19         1.7814  -11.2187   -0.5247 H         1 <0>         0.0850
     50 H20         1.7398  -12.1255   -2.0558 H         1 <0>         0.0737
     51 H21         1.6478  -10.3480   -2.0714 H         1 <0>         0.0907
@<TRIPOS>BOND
     1    1    2 1
     2    1   32 1
     3    1   33 1
     4    1   34 1
     5    2    7 ar
     6    2    3 ar
     7    3    4 ar
     8    3   35 1
     9    4    5 ar
    10    4   36 1
    11    5   12 1
    12    5    6 ar
    13    6    7 ar
    14    6    8 1
    15    7   37 1
    16    8    9 am
    17    8   38 1
    18    9   10 2
    19    9   11 1
    20   11   12 1
    21   11   13 1
    22   11   14 1
    23   13   39 1
    24   13   40 1
    25   13   41 1
    26   14   15 2
    27   14   16 am
    28   16   17 1
    29   16   42 1
    30   17   18 1
    31   17   43 1
    32   17   44 1
    33   18   19 1
    34   18   45 1
    35   18   46 1
    36   19   24 1
    37   19   20 2
    38   20   21 1
    39   20   31 1
    40   21   22 1
    41   21   23 1
    42   23   28 ar
    43   23   24 ar
    44   24   25 ar
    45   25   26 ar
    46   25   47 1
    47   26   27 ar
    48   26   30 1
    49   27   28 ar
    50   27   48 1
    51   28   29 1
    52   31   49 1
    53   31   50 1
    54   31   51 1
@<TRIPOS>MOLECULE
ZINC05374246
   43    44     0     0     0
SMALL
USER_CHARGES
2-[5-[(4-isopropylphenyl)methylene]-4-oxo-2-thioxo-thiazolidin-3-yl]pentanedioic acid
@<TRIPOS>ATOM
      1 C1          0.1944   -2.6653    1.2589 C.3       1 <0>        -0.1437
      2 C2          1.1984   -2.1873    0.2080 C.3       1 <0>        -0.0585
      3 C3          0.8079   -2.7460   -1.1617 C.3       1 <0>        -0.1443
      4 C4          1.1927   -0.6812    0.1564 C.ar      1 <0>        -0.0676
      5 C5          2.3543    0.0212    0.4274 C.ar      1 <0>        -0.1119
      6 C6          2.3578    1.3991    0.3815 C.ar      1 <0>        -0.0910
      7 C7          1.1826    2.0875    0.0602 C.ar      1 <0>        -0.0752
      8 C8          0.0126    1.3699   -0.2124 C.ar      1 <0>        -0.0858
      9 C9          0.0261   -0.0078   -0.1621 C.ar      1 <0>        -0.1202
     10 C10         1.1772    3.5566    0.0094 C.2       1 <0>         0.0305
     11 C11         2.3431    4.2427    0.1044 C.2       1 <0>        -0.1919
     12 C12         2.5733    5.6983    0.2241 C.2       1 <0>         0.5418
     13 O1          1.6510    6.4916    0.2516 O.2       1 <0>        -0.4721
     14 N1          3.8328    6.0934    0.3042 N.am      1 <0>        -0.4847
     15 C13         4.8520    5.2112    0.2665 C.2       1 <0>         0.2778
     16 S1          6.5329    5.5253    0.3485 S.2       1 <0>        -0.2709
     17 S2          4.0248    3.6365    0.1112 S.3       1 <0>         0.0113
     18 C14         4.1278    7.5228    0.4305 C.3       1 <0>         0.0658
     19 H1          3.1949    8.0864    0.4455 H         1 <0>         0.1099
     20 C15         4.9778    7.9751   -0.7585 C.3       1 <0>        -0.1066
     21 C16         4.1639    7.8421   -2.0473 C.3       1 <0>        -0.1528
     22 C17         5.0012    8.2877   -3.2184 C.2       1 <0>         0.4654
     23 O2          6.1328    8.6721   -3.0405 O.co2     1 <0>        -0.6312
     24 C18         4.8838    7.7685    1.7108 C.2       1 <0>         0.4797
     25 O3          5.1489    6.8444    2.4426 O.co2     1 <0>        -0.6236
     26 H2          0.1985   -3.7547    1.2962 H         1 <0>         0.0558
     27 H3          0.4726   -2.2673    2.2348 H         1 <0>         0.0569
     28 H4         -0.8032   -2.3146    0.9944 H         1 <0>         0.0566
     29 H5          2.1959   -2.5380    0.4725 H         1 <0>         0.0788
     30 H6          1.5231   -2.4054   -1.9104 H         1 <0>         0.0580
     31 H7          0.8120   -3.8353   -1.1244 H         1 <0>         0.0558
     32 H8         -0.1897   -2.3952   -1.4262 H         1 <0>         0.0567
     33 H9          3.2604   -0.5117    0.6752 H         1 <0>         0.1275
     34 H10         3.2638    1.9458    0.5972 H         1 <0>         0.1377
     35 H11        -0.8984    1.8938   -0.4611 H         1 <0>         0.1304
     36 H12        -0.8761   -0.5631   -0.3723 H         1 <0>         0.1238
     37 H13         0.2447    4.0896   -0.1035 H         1 <0>         0.1576
     38 H14         5.2717    9.0156   -0.6201 H         1 <0>         0.0924
     39 H15         5.8694    7.3516   -0.8259 H         1 <0>         0.0945
     40 H16         3.8700    6.8017   -2.1856 H         1 <0>         0.0440
     41 H17         3.2724    8.4656   -1.9799 H         1 <0>         0.0594
     42 O4          4.4898    8.2574   -4.4591 O.co2     1 <0>        -0.7894
     43 O5          5.2626    9.0139    2.0381 O.co2     1 <0>        -0.7469
@<TRIPOS>BOND
     1    1    2 1
     2    1   26 1
     3    1   27 1
     4    1   28 1
     5    2    3 1
     6    2    4 1
     7    2   29 1
     8    3   30 1
     9    3   31 1
    10    3   32 1
    11    4    9 ar
    12    4    5 ar
    13    5    6 ar
    14    5   33 1
    15    6    7 ar
    16    6   34 1
    17    7    8 ar
    18    7   10 1
    19    8    9 ar
    20    8   35 1
    21    9   36 1
    22   10   11 2
    23   10   37 1
    24   11   17 1
    25   11   12 1
    26   12   13 2
    27   12   14 am
    28   14   15 1
    29   14   18 1
    30   15   16 2
    31   15   17 1
    32   18   19 1
    33   18   20 1
    34   18   24 1
    35   20   21 1
    36   20   38 1
    37   20   39 1
    38   21   22 1
    39   21   40 1
    40   21   41 1
    41   22   23 2
    42   22   42 1
    43   24   25 2
    44   24   43 1
@<TRIPOS>MOLECULE
ZINC16115524
   49    51     0     0     0
SMALL
USER_CHARGES
(2S)-2-[2-ethoxy-4-[(Z)-[1-(2-fluorophenyl)-4,6-dioxo-2-thioxo-hexahydropyrimidin-5-ylidene]methyl]phenoxy]propanoic acid
@<TRIPOS>ATOM
      1 C1          1.5889   -7.4112    8.3070 C.3       1 <0>        -0.1486
      2 C2          1.4682   -6.7302    6.9422 C.3       1 <0>         0.0517
      3 O1          1.2914   -5.3240    7.1256 O.3       1 <0>        -0.2980
      4 C3          1.1666   -4.5660    6.0034 C.ar      1 <0>         0.0799
      5 C4          1.2080   -5.1626    4.7606 C.ar      1 <0>        -0.0785
      6 C5          1.0837   -4.3763    3.6050 C.ar      1 <0>        -0.1203
      7 C6          0.9078   -2.9891    3.7222 C.ar      1 <0>        -0.0717
      8 C7          0.8630   -2.4052    4.9670 C.ar      1 <0>        -0.2061
      9 C8          0.9912   -3.1853    6.1104 C.ar      1 <0>         0.1456
     10 O2          0.9452   -2.6025    7.3352 O.3       1 <0>        -0.2744
     11 C9          0.7117   -1.1933    7.3748 C.3       1 <0>         0.0346
     12 H1          1.2622   -0.7665    6.5234 H         1 <0>         0.0736
     13 C10        -0.7904   -0.9221    7.2703 C.3       1 <0>        -0.1534
     14 C11         1.2341   -0.6338    8.6729 C.2       1 <0>         0.4753
     15 O3          1.7531   -1.3667    9.4813 O.co2     1 <0>        -0.6115
     16 O4          1.1228    0.6787    8.9311 O.co2     1 <0>        -0.7589
     17 C12         1.1314   -5.0011    2.2833 C.2       1 <0>         0.0860
     18 C13         2.1043   -5.9395    1.9975 C.2       1 <0>        -0.2936
     19 C14         2.0649   -6.7375    0.7557 C.2       1 <0>         0.5358
     20 O5          1.1691   -6.5901   -0.0539 O.3       1 <0>        -0.5231
     21 N1          3.0497   -7.6349    0.5440 N.2       1 <0>        -0.6260
     22 C15         4.0451   -7.8042    1.4254 C.2       1 <0>         0.5504
     23 S1          5.2548   -8.9617    1.0679 S.2       1 <0>        -0.6971
     24 N2          4.1422   -7.1201    2.5738 N.am      1 <0>        -0.5098
     25 C16         3.2297   -6.1887    2.9197 C.2       1 <0>         0.5514
     26 O6          3.3317   -5.5708    3.9627 O.2       1 <0>        -0.4798
     27 C17         5.2204   -7.3743    3.4330 C.ar      1 <0>         0.1323
     28 C18         5.1088   -8.3422    4.4216 C.ar      1 <0>        -0.0649
     29 C19         6.1726   -8.5904    5.2671 C.ar      1 <0>        -0.1234
     30 C20         7.3488   -7.8761    5.1304 C.ar      1 <0>        -0.0902
     31 C21         7.4650   -6.9110    4.1472 C.ar      1 <0>        -0.1502
     32 C22         6.4038   -6.6573    3.2971 C.ar      1 <0>         0.1261
     33 F1          6.5171   -5.7146    2.3360 F         1 <0>        -0.1339
     34 H2          1.7250   -8.4936    8.1659 H         1 <0>         0.0724
     35 H3          0.6737   -7.2296    8.8896 H         1 <0>         0.0641
     36 H4          2.4548   -7.0000    8.8466 H         1 <0>         0.0680
     37 H5          2.3834   -6.9118    6.3596 H         1 <0>         0.0612
     38 H6          0.6024   -7.1414    6.4025 H         1 <0>         0.0522
     39 H7          1.3396   -6.2313    4.6769 H         1 <0>         0.1240
     40 H8          0.8079   -2.3803    2.8358 H         1 <0>         0.1257
     41 H9          0.7275   -1.3374    5.0563 H         1 <0>         0.1393
     42 H10        -0.9701    0.1627    7.3008 H         1 <0>         0.0775
     43 H11        -1.3093   -1.4036    8.1123 H         1 <0>         0.0599
     44 H12        -1.1717   -1.3305    6.3227 H         1 <0>         0.0508
     45 H13         0.3927   -4.7238    1.5169 H         1 <0>         0.1538
     46 H14         4.1907   -8.9006    4.5299 H         1 <0>         0.1266
     47 H15         6.0857   -9.3437    6.0361 H         1 <0>         0.1299
     48 H16         8.1786   -8.0727    5.7931 H         1 <0>         0.1306
     49 H17         8.3864   -6.3580    4.0401 H         1 <0>         0.1349
@<TRIPOS>BOND
     1    1    2 1
     2    1   34 1
     3    1   35 1
     4    1   36 1
     5    2    3 1
     6    2   37 1
     7    2   38 1
     8    3    4 1
     9    4    9 ar
    10    4    5 ar
    11    5    6 ar
    12    5   39 1
    13    6    7 ar
    14    6   17 1
    15    7    8 ar
    16    7   40 1
    17    8    9 ar
    18    8   41 1
    19    9   10 1
    20   10   11 1
    21   11   12 1
    22   11   13 1
    23   11   14 1
    24   13   42 1
    25   13   43 1
    26   13   44 1
    27   14   15 2
    28   14   16 1
    29   17   18 2
    30   17   45 1
    31   18   25 1
    32   18   19 1
    33   19   20 1
    34   19   21 2
    35   21   22 1
    36   22   23 2
    37   22   24 1
    38   24   25 am
    39   24   27 1
    40   25   26 2
    41   27   32 ar
    42   27   28 ar
    43   28   29 ar
    44   28   46 1
    45   29   30 ar
    46   29   47 1
    47   30   31 ar
    48   30   48 1
    49   31   32 ar
    50   31   49 1
    51   32   33 1
@<TRIPOS>MOLECULE
ZINC02269463
   46    49     0     0     0
SMALL
USER_CHARGES

@<TRIPOS>ATOM
      1 C1         -0.0168    1.5028    0.0117 C.3       1 <0>        -0.1002
      2 C2          0.0031   -0.0041    0.0029 C.ar      1 <0>        -0.1095
      3 C3         -1.1812   -0.7103    0.1074 C.ar      1 <0>        -0.1149
      4 C4         -1.1663   -2.0914    0.0996 C.ar      1 <0>        -0.0904
      5 C5          0.0396   -2.7706   -0.0132 C.ar      1 <0>         0.1996
      6 C6          1.2271   -2.0585   -0.1179 C.ar      1 <0>        -0.0911
      7 C7          1.2050   -0.6775   -0.1152 C.ar      1 <0>        -0.1156
      8 N1          0.0581   -4.1710   -0.0209 N.pl3     1 <0>        -0.4925
      9 C8          0.1707   -4.8586    1.1562 C.2       1 <0>         0.4852
     10 C9          0.1865   -6.2254    1.1280 C.2       1 <0>        -0.4554
     11 C10         0.0868   -6.8783   -0.1066 C.2       1 <0>         0.4888
     12 O1          0.0996   -8.2297   -0.1623 O.3       1 <0>        -0.6743
     13 N2         -0.0206   -6.1674   -1.2216 N.2       1 <0>        -0.6005
     14 C11        -0.0404   -4.8375   -1.1861 C.2       1 <0>         0.5387
     15 S1         -0.1876   -3.9589   -2.6480 S.2       1 <0>        -0.7857
     16 C12         0.3096   -7.0164    2.4048 C.3       1 <0>         0.2314
     17 H1          0.2742   -6.3459    3.2635 H         1 <0>         0.1179
     18 C13         1.6027   -7.7919    2.4087 C.ar      1 <0>        -0.0607
     19 C14         2.9250   -7.4259    2.3486 C.ar      1 <0>        -0.0643
     20 C15         3.9173   -8.3941    2.3712 C.ar      1 <0>        -0.1667
     21 C16         3.5831   -9.7353    2.4547 C.ar      1 <0>         0.0809
     22 C17         2.2469  -10.1201    2.5167 C.ar      1 <0>         0.1384
     23 C18         1.2453   -9.1430    2.4934 C.ar      1 <0>        -0.1553
     24 C19        -0.2233   -9.2139    2.5413 C.2       1 <0>         0.5492
     25 O2         -0.8689  -10.2405    2.6172 O.2       1 <0>        -0.4803
     26 O3         -0.7469   -7.9765    2.4896 O.3       1 <0>        -0.2997
     27 O4          1.9175  -11.4343    2.5981 O.3       1 <0>        -0.3156
     28 C20         1.7991  -11.9934    3.9079 C.3       1 <0>         0.0432
     29 O5          4.5626  -10.6786    2.4759 O.3       1 <0>        -0.3095
     30 C21         5.9123  -10.2140    2.4087 C.3       1 <0>         0.0272
     31 O6          0.2653   -4.1965    2.3298 O.3       1 <0>        -0.6932
     32 H2         -0.1196    1.8708   -1.0091 H         1 <0>         0.0613
     33 H3         -0.8585    1.8515    0.6101 H         1 <0>         0.0574
     34 H4          0.9132    1.8759    0.4406 H         1 <0>         0.0572
     35 H5         -2.1187   -0.1815    0.1955 H         1 <0>         0.1145
     36 H6         -2.0915   -2.6424    0.1816 H         1 <0>         0.1142
     37 H7          2.1666   -2.5839   -0.2058 H         1 <0>         0.1132
     38 H8          2.1278   -0.1231   -0.2014 H         1 <0>         0.1141
     39 H9          3.1925   -6.3816    2.2834 H         1 <0>         0.1349
     40 H10         4.9556   -8.1008    2.3230 H         1 <0>         0.1353
     41 H11         1.5325  -13.0475    3.8302 H         1 <0>         0.0884
     42 H12         2.7502  -11.8969    4.4315 H         1 <0>         0.0397
     43 H13         1.0243  -11.4625    4.4609 H         1 <0>         0.0445
     44 H14         6.0599   -9.6593    1.4821 H         1 <0>         0.0547
     45 H15         6.1149   -9.5623    3.2586 H         1 <0>         0.0514
     46 H16         6.5915  -11.0661    2.4342 H         1 <0>         0.0942
@<TRIPOS>BOND
     1    1    2 1
     2    1   32 1
     3    1   33 1
     4    1   34 1
     5    2    7 ar
     6    2    3 ar
     7    3    4 ar
     8    3   35 1
     9    4    5 ar
    10    4   36 1
    11    5    6 ar
    12    5    8 1
    13    6    7 ar
    14    6   37 1
    15    7   38 1
    16    8   14 1
    17    8    9 1
    18    9   31 1
    19    9   10 2
    20   10   16 1
    21   10   11 1
    22   11   12 1
    23   11   13 2
    24   13   14 1
    25   14   15 2
    26   16   17 1
    27   16   26 1
    28   16   18 1
    29   18   23 ar
    30   18   19 ar
    31   19   20 ar
    32   19   39 1
    33   20   21 ar
    34   20   40 1
    35   21   22 ar
    36   21   29 1
    37   22   23 ar
    38   22   27 1
    39   23   24 1
    40   24   25 2
    41   24   26 1
    42   27   28 1
    43   28   41 1
    44   28   42 1
    45   28   43 1
    46   29   30 1
    47   30   44 1
    48   30   45 1
    49   30   46 1
@<TRIPOS>MOLECULE
ZINC40568564
   51    53     0     0     0
SMALL
USER_CHARGES

@<TRIPOS>ATOM
      1 C1         -0.0931    0.1695   -3.6364 C.3       1 <0>        -0.1055
      2 C2         -0.0774   -0.9599   -2.6387 C.2       1 <0>         0.1076
      3 C3          0.9594   -1.8247   -2.6278 C.2       1 <0>        -0.2422
      4 C4          0.9797   -2.8824   -1.6969 C.2       1 <0>         0.3109
      5 C5         -0.0712   -3.0125   -0.8079 C.2       1 <0>        -0.3567
      6 C6         -1.1237   -2.0911   -0.8579 C.2       1 <0>         0.5413
      7 O1         -2.0592   -2.1919   -0.0793 O.2       1 <0>        -0.5965
      8 N1         -1.1044   -1.0910   -1.7585 N.am      1 <0>        -0.5197
      9 C7         -2.2110   -0.1318   -1.7941 C.3       1 <0>         0.0799
     10 C8         -0.0835   -4.1317    0.2012 C.3       1 <0>         0.1274
     11 H1         -0.0520   -5.0895   -0.3182 H         1 <0>         0.0580
     12 C9         -1.3411   -4.0494    1.0274 C.ar      1 <0>         0.0022
     13 C10        -1.4148   -3.1675    2.0884 C.ar      1 <0>        -0.0400
     14 C11        -2.5680   -3.0918    2.8470 C.ar      1 <0>        -0.1643
     15 C12        -3.6506   -3.8978    2.5459 C.ar      1 <0>        -0.1228
     16 C13        -3.5821   -4.7807    1.4860 C.ar      1 <0>        -0.2195
     17 C14        -2.4277   -4.8548    0.7198 C.ar      1 <0>         0.1022
     18 O2         -2.3598   -5.7187   -0.3271 O.3       1 <0>        -0.3117
     19 C15        -3.5166   -6.5170   -0.5856 C.3       1 <0>         0.0361
     20 C16         1.1184   -4.0090    1.1021 C.2       1 <0>        -0.1477
     21 C17         1.8242   -5.1085    1.4427 C.2       1 <0>         0.1062
     22 N2          2.9108   -5.0162    2.2536 N.am      1 <0>        -0.5250
     23 C18         3.3151   -3.8284    2.7406 C.2       1 <0>         0.5249
     24 O3          4.2946   -3.7696    3.4677 O.2       1 <0>        -0.6542
     25 C19         2.6158   -2.6604    2.4152 C.2       1 <0>        -0.4926
     26 C20         1.5122   -2.7457    1.5867 C.2       1 <0>         0.3453
     27 O4          0.8177   -1.6328    1.2495 O.3       1 <0>        -0.6664
     28 C21         3.6537   -6.2293    2.6038 C.3       1 <0>         0.0793
     29 C22         1.4012   -6.4560    0.9170 C.3       1 <0>        -0.1055
     30 O5          2.0125   -3.7584   -1.6736 O.3       1 <0>        -0.7095
     31 H2          0.4012    1.0407   -3.2067 H         1 <0>         0.0650
     32 H3          0.4325   -0.1372   -4.5407 H         1 <0>         0.0693
     33 H4         -1.1243    0.4218   -3.8834 H         1 <0>         0.0586
     34 H5          1.7708   -1.7064   -3.3308 H         1 <0>         0.1066
     35 H6         -2.9834   -0.4932   -2.4730 H         1 <0>         0.0421
     36 H7         -2.6292   -0.0221   -0.7934 H         1 <0>         0.0772
     37 H8         -1.8439    0.8337   -2.1423 H         1 <0>         0.0565
     38 H9         -0.5706   -2.5370    2.3256 H         1 <0>         0.1521
     39 H10        -2.6234   -2.4023    3.6765 H         1 <0>         0.0964
     40 H11        -4.5503   -3.8371    3.1403 H         1 <0>         0.0943
     41 H12        -4.4279   -5.4100    1.2512 H         1 <0>         0.1004
     42 H13        -3.3292   -7.1606   -1.4450 H         1 <0>         0.0831
     43 H14        -3.7364   -7.1314    0.2875 H         1 <0>         0.0401
     44 H15        -4.3664   -5.8677   -0.7962 H         1 <0>         0.0413
     45 H16         2.9362   -1.7048    2.8030 H         1 <0>         0.0985
     46 H17         4.4297   -6.4078    1.8594 H         1 <0>         0.0453
     47 H18         4.1129   -6.1039    3.5844 H         1 <0>         0.0717
     48 H19         2.9714   -7.0790    2.6282 H         1 <0>         0.0610
     49 H20         1.0173   -6.3461   -0.0972 H         1 <0>         0.0871
     50 H21         2.2587   -7.1288    0.9101 H         1 <0>         0.0528
     51 H22         0.6215   -6.8676    1.5580 H         1 <0>         0.0589
@<TRIPOS>BOND
     1    1    2 1
     2    1   31 1
     3    1   32 1
     4    1   33 1
     5    2    8 1
     6    2    3 2
     7    3    4 1
     8    3   34 1
     9    4    5 2
    10    4   30 1
    11    5    6 1
    12    5   10 1
    13    6    7 2
    14    6    8 am
    15    8    9 1
    16    9   35 1
    17    9   36 1
    18    9   37 1
    19   10   11 1
    20   10   12 1
    21   10   20 1
    22   12   17 ar
    23   12   13 ar
    24   13   14 ar
    25   13   38 1
    26   14   15 ar
    27   14   39 1
    28   15   16 ar
    29   15   40 1
    30   16   17 ar
    31   16   41 1
    32   17   18 1
    33   18   19 1
    34   19   42 1
    35   19   43 1
    36   19   44 1
    37   20   26 1
    38   20   21 2
    39   21   22 1
    40   21   29 1
    41   22   23 am
    42   22   28 1
    43   23   24 2
    44   23   25 1
    45   25   26 2
    46   25   45 1
    47   26   27 1
    48   28   46 1
    49   28   47 1
    50   28   48 1
    51   29   49 1
    52   29   50 1
    53   29   51 1
@<TRIPOS>MOLECULE
ZINC59678505
   45    47     0     0     0
SMALL
USER_CHARGES

@<TRIPOS>ATOM
      1 C1          0.3634    1.6040   -0.4275 C.3       1 <0>        -0.0916
      2 C2          0.3838    0.1011   -0.3183 C.2       1 <0>         0.0328
      3 C3          0.1006   -0.7558   -1.3143 C.2       1 <0>        -0.1833
      4 C4          0.2468   -2.1073   -0.7590 C.2       1 <0>        -0.2151
      5 C5          0.6161   -1.9387    0.5615 C.2       1 <0>         0.1001
      6 N1          0.6988   -0.6067    0.8074 N.pl3     1 <0>        -0.3651
      7 C6          1.0530   -0.0388    2.0392 C.ar      1 <0>         0.0424
      8 C7          2.3307   -0.2254    2.5447 C.ar      1 <0>        -0.0703
      9 C8          2.6879    0.3390    3.7723 C.ar      1 <0>        -0.1470
     10 C9          1.7574    1.0905    4.4890 C.ar      1 <0>        -0.0291
     11 C10         0.4737    1.2757    3.9771 C.ar      1 <0>        -0.1468
     12 C11         0.1264    0.7126    2.7461 C.ar      1 <0>        -0.0714
     13 C12        -0.5150    2.0703    4.7314 C.2       1 <0>         0.5273
     14 O1         -0.2087    2.5668    5.8061 O.co2     1 <0>        -0.6833
     15 O2         -1.6406    2.2322    4.2817 O.co2     1 <0>        -0.6964
     16 C13         4.0477    0.1394    4.3096 C.2       1 <0>         0.5279
     17 O3          4.8630   -0.5203    3.6805 O.co2     1 <0>        -0.6970
     18 O4          4.3594    0.6336    5.3838 O.co2     1 <0>        -0.6832
     19 C14         0.8852   -3.0408    1.5534 C.3       1 <0>        -0.0956
     20 C15         0.0419   -3.3768   -1.4623 C.2       1 <0>         0.0785
     21 C16        -0.6408   -3.3999   -2.6419 C.2       1 <0>        -0.1082
     22 C17        -1.2809   -2.2124   -3.1221 C.1       1 <0>         0.2796
     23 N2         -1.7887   -1.2703   -3.5031 N.1       1 <0>        -0.4493
     24 C18        -0.7205   -4.6534   -3.4270 C.ar      1 <0>        -0.0180
     25 C19         0.4349   -5.2118   -3.9739 C.ar      1 <0>        -0.1026
     26 C20         0.3542   -6.3796   -4.7043 C.ar      1 <0>        -0.1212
     27 C21        -0.8694   -6.9965   -4.8948 C.ar      1 <0>        -0.1244
     28 C22        -2.0189   -6.4476   -4.3549 C.ar      1 <0>        -0.1220
     29 C23        -1.9503   -5.2832   -3.6177 C.ar      1 <0>        -0.1051
     30 H1          1.3470    1.9593   -0.7348 H         1 <0>         0.0695
     31 H2         -0.3789    1.9046   -1.1669 H         1 <0>         0.0749
     32 H3          0.1075    2.0351    0.5404 H         1 <0>         0.0756
     33 H4         -0.1802   -0.5003   -2.3253 H         1 <0>         0.1429
     34 H5          3.0507   -0.8080    1.9892 H         1 <0>         0.1244
     35 H6          2.0302    1.5277    5.4381 H         1 <0>         0.1388
     36 H7         -0.8662    0.8596    2.3466 H         1 <0>         0.1242
     37 H8          1.9401   -3.3129    1.5169 H         1 <0>         0.0822
     38 H9          0.6333   -2.6964    2.5564 H         1 <0>         0.0761
     39 H10         0.2769   -3.9103    1.3044 H         1 <0>         0.0797
     40 H11         0.4317   -4.2939   -1.0460 H         1 <0>         0.1386
     41 H12         1.3906   -4.7309   -3.8261 H         1 <0>         0.1282
     42 H13         1.2479   -6.8127   -5.1285 H         1 <0>         0.1217
     43 H14        -0.9276   -7.9103   -5.4676 H         1 <0>         0.1177
     44 H15        -2.9712   -6.9336   -4.5074 H         1 <0>         0.1200
     45 H16        -2.8476   -4.8582   -3.1927 H         1 <0>         0.1231
@<TRIPOS>BOND
     1    1    2 1
     2    1   30 1
     3    1   31 1
     4    1   32 1
     5    2    6 1
     6    2    3 2
     7    3    4 1
     8    3   33 1
     9    4    5 2
    10    4   20 1
    11    5    6 1
    12    5   19 1
    13    6    7 1
    14    7   12 ar
    15    7    8 ar
    16    8    9 ar
    17    8   34 1
    18    9   10 ar
    19    9   16 1
    20   10   11 ar
    21   10   35 1
    22   11   12 ar
    23   11   13 1
    24   12   36 1
    25   13   14 2
    26   13   15 1
    27   16   17 2
    28   16   18 1
    29   19   37 1
    30   19   38 1
    31   19   39 1
    32   20   21 2
    33   20   40 1
    34   21   22 1
    35   21   24 1
    36   22   23 3
    37   24   29 ar
    38   24   25 ar
    39   25   26 ar
    40   25   41 1
    41   26   27 ar
    42   26   42 1
    43   27   28 ar
    44   27   43 1
    45   28   29 ar
    46   28   44 1
    47   29   45 1
@<TRIPOS>MOLECULE
ZINC18286636
   48    50     0     0     0
SMALL
USER_CHARGES

@<TRIPOS>ATOM
      1 C1         -2.8876    1.1928   -0.2261 C.3       1 <0>        -0.1073
      2 C2         -2.4222   -0.2400   -0.1865 C.ar      1 <0>        -0.0994
      3 C3         -1.2007   -0.5534    0.3814 C.ar      1 <0>        -0.1120
      4 C4         -0.7715   -1.8654    0.4191 C.ar      1 <0>        -0.0919
      5 C5         -1.5680   -2.8706   -0.1134 C.ar      1 <0>         0.1611
      6 C6         -2.7938   -2.5529   -0.6823 C.ar      1 <0>        -0.1003
      7 C7         -3.2198   -1.2392   -0.7128 C.ar      1 <0>        -0.0845
      8 C8         -4.5529   -0.8942   -1.3250 C.3       1 <0>        -0.1085
      9 N1         -1.1350   -4.2028   -0.0770 N.am      1 <0>        -0.5334
     10 C9         -0.9060   -4.8573   -1.2355 C.2       1 <0>         0.5570
     11 O1         -1.0690   -4.3094   -2.3097 O.2       1 <0>        -0.4952
     12 C10        -0.4513   -6.2581   -1.1560 C.2       1 <0>        -0.2889
     13 C11        -0.1936   -7.0004   -2.2931 C.2       1 <0>         0.0755
     14 C12        -0.1826   -6.3509   -3.6033 C.ar      1 <0>        -0.1543
     15 C13         0.5255   -5.1535   -3.7904 C.ar      1 <0>         0.0163
     16 C14         0.5318   -4.5521   -5.0162 C.ar      1 <0>        -0.2279
     17 C15        -0.1622   -5.1235   -6.0787 C.ar      1 <0>         0.1647
     18 C16        -0.8662   -6.3106   -5.8997 C.ar      1 <0>        -0.1804
     19 C17        -0.8752   -6.9253   -4.6805 C.ar      1 <0>        -0.0470
     20 O2         -0.1527   -4.5206   -7.2936 O.3       1 <0>        -0.2788
     21 C18         0.5599   -3.2866   -7.3999 C.3       1 <0>         0.0112
     22 H1          1.4502   -3.3259   -6.7723 H         1 <0>         0.0687
     23 C19        -0.3388   -2.1373   -6.9390 C.3       1 <0>        -0.1554
     24 C20         0.9658   -3.0628   -8.8339 C.2       1 <0>         0.5076
     25 O3          0.5947   -3.8362   -9.7003 O.co2     1 <0>        -0.6745
     26 O4          1.6653   -2.1084   -9.1277 O.co2     1 <0>        -0.6893
     27 C21        -0.2834   -6.8317    0.1971 C.2       1 <0>         0.5445
     28 N2         -0.5516   -6.0527    1.2576 N.2       1 <0>        -0.6733
     29 C22        -0.9477   -4.8116    1.1251 C.2       1 <0>         0.6382
     30 O5         -1.1894   -4.0991    2.2426 O.3       1 <0>        -0.6530
     31 O6          0.0887   -7.9832    0.3459 O.2       1 <0>        -0.5496
     32 H2         -3.4515    1.4168    0.6794 H         1 <0>         0.0642
     33 H3         -2.0233    1.8539   -0.2888 H         1 <0>         0.0616
     34 H4         -3.5246    1.3439   -1.0976 H         1 <0>         0.0646
     35 H5         -0.5817    0.2288    0.7953 H         1 <0>         0.1208
     36 H6          0.1828   -2.1094    0.8621 H         1 <0>         0.1211
     37 H7         -3.4152   -3.3325   -1.0975 H         1 <0>         0.1175
     38 H8         -4.4226   -0.6896   -2.3877 H         1 <0>         0.0683
     39 H9         -5.2388   -1.7317   -1.1977 H         1 <0>         0.0621
     40 H10        -4.9614   -0.0118   -0.8326 H         1 <0>         0.0646
     41 H11        -0.0004   -8.0600   -2.2140 H         1 <0>         0.1445
     42 H12         1.0638   -4.7087   -2.9665 H         1 <0>         0.1119
     43 H13         1.0762   -3.6307   -5.1615 H         1 <0>         0.1274
     44 H14        -1.4027   -6.7491   -6.7282 H         1 <0>         0.1269
     45 H15        -1.4182   -7.8489   -4.5440 H         1 <0>         0.1242
     46 H16         0.2048   -1.1960   -7.0201 H         1 <0>         0.0708
     47 H17        -1.2290   -2.0981   -7.5667 H         1 <0>         0.0569
     48 H18        -0.6323   -2.2992   -5.9018 H         1 <0>         0.0526
@<TRIPOS>BOND
     1    1    2 1
     2    1   32 1
     3    1   33 1
     4    1   34 1
     5    2    7 ar
     6    2    3 ar
     7    3    4 ar
     8    3   35 1
     9    4    5 ar
    10    4   36 1
    11    5    6 ar
    12    5    9 1
    13    6    7 ar
    14    6   37 1
    15    7    8 1
    16    8   38 1
    17    8   39 1
    18    8   40 1
    19    9   29 1
    20    9   10 am
    21   10   11 2
    22   10   12 1
    23   12   13 2
    24   12   27 1
    25   13   14 1
    26   13   41 1
    27   14   19 ar
    28   14   15 ar
    29   15   16 ar
    30   15   42 1
    31   16   17 ar
    32   16   43 1
    33   17   18 ar
    34   17   20 1
    35   18   19 ar
    36   18   44 1
    37   19   45 1
    38   20   21 1
    39   21   22 1
    40   21   23 1
    41   21   24 1
    42   23   46 1
    43   23   47 1
    44   23   48 1
    45   24   25 2
    46   24   26 1
    47   27   28 1
    48   27   31 2
    49   28   29 2
    50   29   30 1
@<TRIPOS>MOLECULE
ZINC13274237
   49    51     0     0     0
SMALL
USER_CHARGES
2-[3-[2-[[4-(carboxymethyl)phenyl]amino]-2-oxo-ethyl]sulfanyl-5-(m-tolyl)-1,2,4-triazol-4-yl]acetic acid
@<TRIPOS>ATOM
      1 C1        -15.4268   -8.0344   -2.2508 C.3       1 <0>        -0.1086
      2 C2        -14.2486   -7.6425   -3.1049 C.ar      1 <0>        -0.0953
      3 C3        -14.1964   -8.0344   -4.4310 C.ar      1 <0>        -0.1145
      4 C4        -13.1182   -7.6794   -5.2217 C.ar      1 <0>        -0.1115
      5 C5        -12.0872   -6.9308   -4.6920 C.ar      1 <0>        -0.1099
      6 C6        -12.1338   -6.5319   -3.3554 C.ar      1 <0>         0.0000
      7 C7        -13.2222   -6.8981   -2.5616 C.ar      1 <0>        -0.0805
      8 C8        -11.0325   -5.7302   -2.7811 C.2       1 <0>         0.2170
      9 N1        -10.7488   -5.5941   -1.5067 N.2       1 <0>        -0.2772
     10 N2         -9.7275   -4.8273   -1.3640 N.2       1 <0>        -0.3041
     11 C9         -9.2963   -4.4266   -2.5393 C.2       1 <0>         0.1566
     12 N3        -10.1142   -4.9822   -3.4813 N.pl3     1 <0>        -0.4157
     13 C10       -10.0298   -4.8180   -4.9346 C.3       1 <0>         0.0407
     14 C11        -9.0534   -5.8186   -5.4974 C.2       1 <0>         0.4561
     15 O1         -8.4862   -6.5897   -4.7601 O.co2     1 <0>        -0.6063
     16 S1         -7.9236   -3.3644   -2.8424 S.3       1 <0>         0.0932
     17 C12        -7.3813   -3.0587   -1.1428 C.3       1 <0>        -0.1505
     18 C13        -6.1819   -2.1465   -1.1546 C.2       1 <0>         0.5311
     19 O2         -5.7374   -1.7427   -2.2084 O.2       1 <0>        -0.5019
     20 N4         -5.6031   -1.7792    0.0059 N.am      1 <0>        -0.6608
     21 C14        -4.5681   -0.8376    0.0042 C.ar      1 <0>         0.1226
     22 C15        -4.4804    0.0982   -1.0180 C.ar      1 <0>        -0.1222
     23 C16        -3.4579    1.0266   -1.0164 C.ar      1 <0>        -0.0950
     24 C17        -2.5223    1.0252    0.0018 C.ar      1 <0>        -0.0450
     25 C18        -2.6038    0.0913    1.0183 C.ar      1 <0>        -0.0973
     26 C19        -3.6267   -0.8367    1.0251 C.ar      1 <0>        -0.1441
     27 C20        -1.4078    2.0396    0.0003 C.3       1 <0>        -0.1292
     28 C21        -1.8490    3.2716    0.7478 C.2       1 <0>         0.4659
     29 O3         -2.9549    3.3208    1.2320 O.co2     1 <0>        -0.6294
     30 H1        -15.2251   -8.9919   -1.7708 H         1 <0>         0.0686
     31 H2        -15.5919   -7.2732   -1.4883 H         1 <0>         0.0659
     32 H3        -16.3156   -8.1213   -2.8758 H         1 <0>         0.0637
     33 H4        -15.0008   -8.6204   -4.8504 H         1 <0>         0.1217
     34 H5        -13.0833   -7.9890   -6.2557 H         1 <0>         0.1279
     35 H6        -11.2462   -6.6539   -5.3104 H         1 <0>         0.1379
     36 H7        -13.2622   -6.5961   -1.5255 H         1 <0>         0.1331
     37 H8        -11.0127   -4.9815   -5.3764 H         1 <0>         0.1092
     38 H9         -9.6903   -3.8087   -5.1672 H         1 <0>         0.1046
     39 H10        -7.1140   -4.0043   -0.6711 H         1 <0>         0.1268
     40 H11        -8.1897   -2.5889   -0.5825 H         1 <0>         0.1265
     41 H12        -5.9041   -2.1677    0.8422 H         1 <0>         0.4103
     42 H13        -5.2113    0.1003   -1.8132 H         1 <0>         0.1383
     43 H14        -3.3891    1.7547   -1.8112 H         1 <0>         0.1192
     44 H15        -1.8689    0.0899    1.8098 H         1 <0>         0.1188
     45 H16        -3.6922   -1.5632    1.8215 H         1 <0>         0.1185
     46 H17        -1.1612    2.3069   -1.0272 H         1 <0>         0.0749
     47 H18        -0.5293    1.6150    0.4861 H         1 <0>         0.0740
     48 O4         -8.8138   -5.8531   -6.8177 O.co2     1 <0>        -0.7464
     49 O5         -1.0114    4.3120    0.8804 O.co2     1 <0>        -0.7778
@<TRIPOS>BOND
     1    1    2 1
     2    1   30 1
     3    1   31 1
     4    1   32 1
     5    2    7 ar
     6    2    3 ar
     7    3    4 ar
     8    3   33 1
     9    4    5 ar
    10    4   34 1
    11    5    6 ar
    12    5   35 1
    13    6    7 ar
    14    6    8 1
    15    7   36 1
    16    8   12 1
    17    8    9 2
    18    9   10 1
    19   10   11 2
    20   11   12 1
    21   11   16 1
    22   12   13 1
    23   13   14 1
    24   13   37 1
    25   13   38 1
    26   14   15 2
    27   14   48 1
    28   16   17 1
    29   17   18 1
    30   17   39 1
    31   17   40 1
    32   18   19 2
    33   18   20 am
    34   20   21 1
    35   20   41 1
    36   21   26 ar
    37   21   22 ar
    38   22   23 ar
    39   22   42 1
    40   23   24 ar
    41   23   43 1
    42   24   25 ar
    43   24   27 1
    44   25   26 ar
    45   25   44 1
    46   26   45 1
    47   27   28 1
    48   27   46 1
    49   27   47 1
    50   28   29 2
    51   28   49 1
@<TRIPOS>MOLECULE
ZINC16694894
   43    45     0     0     0
SMALL
USER_CHARGES
(2R)-2-[(5E)-5-[[5-(4-methyl-2-nitro-phenyl)-2-furyl]methylene]-4-oxo-2-thioxo-thiazolidin-3-yl]butanedioic acid
@<TRIPOS>ATOM
      1 C1          5.3566   -3.3037   -6.0025 C.3       1 <0>        -0.1128
      2 C2          5.2397   -3.3150   -4.5001 C.ar      1 <0>        -0.0858
      3 C3          6.3424   -2.9975   -3.7212 C.ar      1 <0>        -0.0714
      4 C4          6.2449   -3.0002   -2.3486 C.ar      1 <0>        -0.0925
      5 C5          5.0246   -3.3359   -1.7360 C.ar      1 <0>         0.0544
      6 C6          3.9129   -3.6557   -2.5348 C.ar      1 <0>         0.0213
      7 C7          4.0304   -3.6423   -3.9062 C.ar      1 <0>        -0.0544
      8 N1          2.6205   -4.0050   -1.9034 N.pl3     1 <0>        -0.0246
      9 O1          1.5805   -4.3042   -2.6540 O.2       1 <0>        -0.1890
     10 O2          2.5106   -4.0166   -0.5910 O.3       1 <0>        -0.1089
     11 C8          4.9109   -3.3464   -0.2772 C.2       1 <0>        -0.0175
     12 C9          5.7946   -4.0043    0.6028 C.2       1 <0>        -0.1658
     13 C10         5.3572   -3.7757    1.8713 C.2       1 <0>        -0.1727
     14 C11         4.1513   -2.9501    1.7479 C.2       1 <0>         0.0142
     15 O3          3.9485   -2.7312    0.4295 O.3       1 <0>        -0.0356
     16 C12         3.3689   -2.4775    2.7893 C.2       1 <0>         0.0230
     17 C13         2.2392   -1.6879    2.5169 C.2       1 <0>        -0.1996
     18 C14         1.6941   -1.2412    1.2006 C.2       1 <0>         0.5360
     19 O4          2.2220   -1.5450    0.1501 O.2       1 <0>        -0.4060
     20 N2          0.6043   -0.4911    1.2455 N.am      1 <0>        -0.4648
     21 C15         0.0433   -0.1784    2.4303 C.2       1 <0>         0.3085
     22 S1         -1.3560    0.7635    2.7231 S.2       1 <0>        -0.3292
     23 S2          1.1039   -0.9769    3.6213 S.3       1 <0>         0.0438
     24 C16         0.0021   -0.0041    0.0020 C.3       1 <0>         0.0994
     25 H1          0.5883   -0.3548   -0.8473 H         1 <0>         0.1063
     26 C17        -0.0187    1.5258    0.0104 C.3       1 <0>        -0.1698
     27 C18         1.3951    2.0474   -0.0003 C.2       1 <0>         0.4622
     28 O5          2.3240    1.2748   -0.0133 O.co2     1 <0>        -0.6397
     29 C19        -1.4075   -0.5249   -0.1112 C.2       1 <0>         0.4780
     30 O6         -1.8624   -1.2306    0.7577 O.co2     1 <0>        -0.6211
     31 H2          5.1100   -2.3108   -6.3786 H         1 <0>         0.0804
     32 H3          6.3770   -3.5578   -6.2894 H         1 <0>         0.0730
     33 H4          4.6674   -4.0342   -6.4261 H         1 <0>         0.0730
     34 H5          7.2798   -2.7436   -4.1937 H         1 <0>         0.1453
     35 H6          7.1037   -2.7486   -1.7438 H         1 <0>         0.1519
     36 H7          3.1775   -3.8873   -4.5218 H         1 <0>         0.1563
     37 H8          6.6632   -4.5813    0.3217 H         1 <0>         0.1514
     38 H9          5.8069   -4.1330    2.7859 H         1 <0>         0.1591
     39 H10         3.6275   -2.7161    3.8104 H         1 <0>         0.1735
     40 H11        -0.5459    1.8868   -0.8726 H         1 <0>         0.0910
     41 H12        -0.5289    1.8773    0.9072 H         1 <0>         0.0972
     42 O7          1.6225    3.3703    0.0047 O.co2     1 <0>        -0.7829
     43 O8         -2.1577   -0.2050   -1.1773 O.co2     1 <0>        -0.7553
@<TRIPOS>BOND
     1    1    2 1
     2    1   31 1
     3    1   32 1
     4    1   33 1
     5    2    7 ar
     6    2    3 ar
     7    3    4 ar
     8    3   34 1
     9    4    5 ar
    10    4   35 1
    11    5    6 ar
    12    5   11 1
    13    6    7 ar
    14    6    8 1
    15    7   36 1
    16    8    9 2
    17    8   10 1
    18   11   15 1
    19   11   12 2
    20   12   13 1
    21   12   37 1
    22   13   14 2
    23   13   38 1
    24   14   15 1
    25   14   16 1
    26   16   17 2
    27   16   39 1
    28   17   23 1
    29   17   18 1
    30   18   19 2
    31   18   20 am
    32   20   21 1
    33   20   24 1
    34   21   22 2
    35   21   23 1
    36   24   25 1
    37   24   26 1
    38   24   29 1
    39   26   27 1
    40   26   40 1
    41   26   41 1
    42   27   28 2
    43   27   42 1
    44   29   30 2
    45   29   43 1
@<TRIPOS>MOLECULE
ZINC12600443
   34    36     0     0     0
SMALL
USER_CHARGES

@<TRIPOS>ATOM
      1 C1         -0.0169    1.3940    0.0097 C.ar      1 <0>        -0.0152
      2 C2          1.1662    2.0966    0.0022 C.ar      1 <0>        -0.1919
      3 C3          2.3812    1.4170   -0.0131 C.ar      1 <0>         0.2993
      4 C4          2.4035    0.0249   -0.0212 C.ar      1 <0>        -0.2733
      5 C5          1.2239   -0.6836   -0.0138 C.ar      1 <0>        -0.0275
      6 C6          0.0021   -0.0041    0.0020 C.ar      1 <0>        -0.2312
      7 C7         -1.2639   -0.7603    0.0105 C.2       1 <0>         0.5616
      8 O1         -2.3257   -0.1680    0.0243 O.2       1 <0>        -0.5156
      9 N1         -1.2440   -2.1079    0.0031 N.am      1 <0>        -0.6231
     10 C8         -2.4337   -2.8185    0.0111 C.2       1 <0>         0.2823
     11 N2         -3.6645   -2.3102    0.0202 N.2       1 <0>        -0.3577
     12 N3         -4.4923   -3.2985    0.0255 N.2       1 <0>        -0.2007
     13 N4         -3.8323   -4.4036    0.0200 N.2       1 <0>        -0.1966
     14 N5         -2.5697   -4.1432    0.0054 N.2       1 <0>        -0.4111
     15 N6          3.5748    2.1300   -0.0206 N.2       1 <0>        -1.0808
     16 S1          5.0210    1.3234   -0.0388 S.o2      1 <0>         2.5963
     17 O2          5.1192    0.6378    1.2020 O.2       1 <0>        -1.0195
     18 O3          5.0954    0.6512   -1.2885 O.2       1 <0>        -1.0196
     19 C9          6.2958    2.5397   -0.0444 C.ar      1 <0>        -0.5983
     20 C10         6.7804    3.0271   -1.2441 C.ar      1 <0>        -0.0067
     21 C11         7.7806    3.9808   -1.2500 C.ar      1 <0>        -0.1245
     22 C12         8.2974    4.4486   -0.0549 C.ar      1 <0>         0.0042
     23 C13         7.8119    3.9608    1.1464 C.ar      1 <0>        -0.0550
     24 C14         6.8070    3.0099    1.1504 C.ar      1 <0>        -0.0011
     25 Cl1         8.4596    4.5463    2.6468 Cl        1 <0>        -0.0533
     26 Cl2         9.5542    5.6461   -0.0617 Cl        1 <0>        -0.0549
     27 H1         -0.9590    1.9218    0.0260 H         1 <0>         0.1215
     28 H2          1.1522    3.1765    0.0078 H         1 <0>         0.1176
     29 H3          3.3476   -0.4993   -0.0338 H         1 <0>         0.1008
     30 H4          1.2419   -1.7634   -0.0204 H         1 <0>         0.1087
     31 H5         -0.3969   -2.5803   -0.0078 H         1 <0>         0.4053
     32 H6          6.3772    2.6622   -2.1772 H         1 <0>         0.1548
     33 H7          8.1591    4.3607   -2.1874 H         1 <0>         0.1473
     34 H8          6.4250    2.6319    2.0872 H         1 <0>         0.1576
@<TRIPOS>BOND
     1    1    6 ar
     2    1    2 ar
     3    1   27 1
     4    2    3 ar
     5    2   28 1
     6    3    4 ar
     7    3   15 1
     8    4    5 ar
     9    4   29 1
    10    5    6 ar
    11    5   30 1
    12    6    7 1
    13    7    8 2
    14    7    9 am
    15    9   10 1
    16    9   31 1
    17   10   14 2
    18   10   11 1
    19   11   12 1
    20   12   13 2
    21   13   14 1
    22   15   16 1
    23   16   17 2
    24   16   18 2
    25   16   19 1
    26   19   24 ar
    27   19   20 ar
    28   20   21 ar
    29   20   32 1
    30   21   22 ar
    31   21   33 1
    32   22   23 ar
    33   22   26 1
    34   23   24 ar
    35   23   25 1
    36   24   34 1
@<TRIPOS>MOLECULE
ZINC13261871
   38    39     0     0     0
SMALL
USER_CHARGES

@<TRIPOS>ATOM
      1 C1         -2.3045    1.3058    1.0552 C.ar      1 <0>        -0.0728
      2 C2         -1.6765    1.9604    0.0123 C.ar      1 <0>        -0.1287
      3 C3         -1.0447    1.2328   -0.9804 C.ar      1 <0>        -0.0568
      4 C4         -1.0420   -0.1498   -0.9287 C.ar      1 <0>        -0.1372
      5 C5         -1.6703   -0.8033    0.1147 C.ar      1 <0>        -0.0796
      6 C6         -2.3014   -0.0757    1.1063 C.ar      1 <0>         0.0181
      7 C7         -2.9859   -0.7888    2.2438 C.3       1 <0>         0.2175
      8 H1         -3.1075   -0.1027    3.0821 H         1 <0>         0.0381
      9 C8         -4.3598   -1.2810    1.7842 C.3       1 <0>        -0.2021
     10 C9         -5.2513   -0.0975    1.5093 C.2       1 <0>         0.4922
     11 O1         -4.9207    1.0147    1.8837 O.co2     1 <0>        -0.6972
     12 O2         -6.3031   -0.2522    0.9125 O.co2     1 <0>        -0.7256
     13 N1         -2.1725   -1.9328    2.6631 N.2       1 <0>        -1.1039
     14 S1         -2.6211   -2.8289    3.9815 S.o2      1 <0>         2.5217
     15 O3         -2.6825   -1.9310    5.0811 O.2       1 <0>        -1.0338
     16 O4         -3.7330   -3.6164    3.5780 O.2       1 <0>        -1.0193
     17 C10        -1.3057   -3.9512    4.3206 C.ar      1 <0>        -0.5009
     18 C11        -1.4653   -5.3006    4.0656 C.ar      1 <0>        -0.0323
     19 C12        -0.4335   -6.1809    4.3316 C.ar      1 <0>        -0.0409
     20 C13         0.7583   -5.7120    4.8523 C.ar      1 <0>        -0.0317
     21 C14         0.9182   -4.3629    5.1064 C.ar      1 <0>        -0.0274
     22 C15        -0.1124   -3.4817    4.8362 C.ar      1 <0>         0.0477
     23 N2          0.0606   -2.0362    5.1035 N.pl3     1 <0>         0.0079
     24 O5          0.6948   -1.6710    6.0659 O.2       1 <0>        -0.1935
     25 O6         -0.4324   -1.2206    4.3595 O.3       1 <0>        -0.0109
     26 N3          1.8630   -6.6549    5.1381 N.pl3     1 <0>         0.0386
     27 O7          1.7230   -7.8351    4.9163 O.2       1 <0>        -0.1497
     28 O8          2.9052   -6.2449    5.5934 O.3       1 <0>        -0.1524
     29 Cl1        -0.2563    2.0542   -2.2909 Cl        1 <0>        -0.1192
     30 H2         -2.7938    1.8737    1.8326 H         1 <0>         0.1404
     31 H3         -1.6793    3.0396   -0.0277 H         1 <0>         0.1154
     32 H4         -0.5493   -0.7183   -1.7036 H         1 <0>         0.1122
     33 H5         -1.6686   -1.8825    0.1550 H         1 <0>         0.1320
     34 H6         -4.2486   -1.8712    0.8747 H         1 <0>         0.0523
     35 H7         -4.8048   -1.8974    2.5653 H         1 <0>         0.0565
     36 H8         -2.3963   -5.6669    3.6589 H         1 <0>         0.1821
     37 H9         -0.5584   -7.2352    4.1331 H         1 <0>         0.1698
     38 H10         1.8491   -3.9966    5.5134 H         1 <0>         0.1732
@<TRIPOS>BOND
     1    1    6 ar
     2    1    2 ar
     3    1   30 1
     4    2    3 ar
     5    2   31 1
     6    3    4 ar
     7    3   29 1
     8    4    5 ar
     9    4   32 1
    10    5    6 ar
    11    5   33 1
    12    6    7 1
    13    7    8 1
    14    7    9 1
    15    7   13 1
    16    9   10 1
    17    9   34 1
    18    9   35 1
    19   10   11 2
    20   10   12 1
    21   13   14 1
    22   14   15 2
    23   14   16 2
    24   14   17 1
    25   17   22 ar
    26   17   18 ar
    27   18   19 ar
    28   18   36 1
    29   19   20 ar
    30   19   37 1
    31   20   21 ar
    32   20   26 1
    33   21   22 ar
    34   21   38 1
    35   22   23 1
    36   23   24 2
    37   23   25 1
    38   26   27 2
    39   26   28 1
@<TRIPOS>MOLECULE
ZINC63912374
   35    36     0     0     0
SMALL
USER_CHARGES

@<TRIPOS>ATOM
      1 C1         -0.0187    1.5258    0.0104 C.3       1 <0>        -0.1393
      2 C2          0.0021   -0.0041    0.0020 C.3       1 <0>        -0.6074
      3 S1          0.8511   -0.5891   -1.4904 S.o2      1 <0>         2.5132
      4 O1          0.0816   -0.2798   -2.6443 O.2       1 <0>        -1.0392
      5 O2          2.2316   -0.2574   -1.4300 O.2       1 <0>        -1.0395
      6 N1          0.8085   -2.2411   -1.3844 N.2       1 <0>        -1.1102
      7 C3          1.3860   -3.0224   -2.3924 C.ar      1 <0>         0.2036
      8 C4          1.9995   -2.4120   -3.4783 C.ar      1 <0>        -0.2128
      9 C5          2.5688   -3.1826   -4.4728 C.ar      1 <0>        -0.1240
     10 C6          2.5281   -4.5680   -4.3867 C.ar      1 <0>         0.1798
     11 C7          1.9149   -5.1784   -3.3006 C.ar      1 <0>        -0.2133
     12 C8          1.3503   -4.4077   -2.3035 C.ar      1 <0>        -0.1367
     13 N2          3.1047   -5.3492   -5.3952 N.2       1 <0>        -1.0809
     14 S2          3.0562   -7.0013   -5.2925 S.o2      1 <0>         2.5845
     15 O3          3.8561   -7.3625   -4.1749 O.2       1 <0>        -1.0166
     16 O4          1.6898   -7.3752   -5.4039 O.2       1 <0>        -1.0200
     17 C9          3.8700   -7.6362   -6.7205 C.2       1 <0>        -0.5871
     18 C10         5.1791   -7.9436   -6.8910 C.2       1 <0>        -0.0848
     19 C11         5.5988   -8.4341   -8.1133 C.2       1 <0>        -0.0610
     20 C12         4.6889   -8.5932   -9.1053 C.2       1 <0>        -0.1867
     21 S3          3.1830   -8.0489   -8.3158 S.3       1 <0>         0.2951
     22 N3          4.8905   -9.0938  -10.4838 N.pl3     1 <0>         0.0871
     23 O5          5.9933   -9.4269  -10.8507 O.2       1 <0>        -0.1527
     24 O6          3.9524   -9.1694  -11.2427 O.3       1 <0>        -0.1522
     25 H1          1.0039    1.9031    0.0027 H         1 <0>         0.0615
     26 H2         -0.5459    1.8868   -0.8726 H         1 <0>         0.0615
     27 H3         -0.5289    1.8773    0.9072 H         1 <0>         0.0602
     28 H4          0.5293   -0.3651    0.8851 H         1 <0>         0.1138
     29 H5         -1.0205   -0.3814    0.0098 H         1 <0>         0.1138
     30 H6          2.0312   -1.3346   -3.5453 H         1 <0>         0.0897
     31 H7          3.0453   -2.7079   -5.3177 H         1 <0>         0.0955
     32 H8          1.8832   -6.2558   -3.2336 H         1 <0>         0.0826
     33 H9          0.8770   -4.8824   -1.4567 H         1 <0>         0.0954
     34 H10         5.8838   -7.8069   -6.0841 H         1 <0>         0.1684
     35 H11         6.6363   -8.6864   -8.2756 H         1 <0>         0.1590
@<TRIPOS>BOND
     1    1    2 1
     2    1   25 1
     3    1   26 1
     4    1   27 1
     5    2    3 1
     6    2   28 1
     7    2   29 1
     8    3    4 2
     9    3    5 2
    10    3    6 1
    11    6    7 1
    12    7   12 ar
    13    7    8 ar
    14    8    9 ar
    15    8   30 1
    16    9   10 ar
    17    9   31 1
    18   10   11 ar
    19   10   13 1
    20   11   12 ar
    21   11   32 1
    22   12   33 1
    23   13   14 1
    24   14   15 2
    25   14   16 2
    26   14   17 1
    27   17   21 1
    28   17   18 2
    29   18   19 1
    30   18   34 1
    31   19   20 2
    32   19   35 1
    33   20   21 1
    34   20   22 1
    35   22   23 2
    36   22   24 1
@<TRIPOS>MOLECULE
ZINC13232717
   46    48     0     0     0
SMALL
USER_CHARGES
3-[[2-[[4-(carboxymethyl)-5-(m-tolyl)-1,2,4-triazol-3-yl]sulfanyl]acetyl]amino]benzoic acid
@<TRIPOS>ATOM
      1 C1        -10.9550   -3.1773    1.6101 C.3       1 <0>        -0.1080
      2 C2        -10.4183   -1.8813    1.0591 C.ar      1 <0>        -0.0962
      3 C3        -11.2930   -0.9034    0.6190 C.ar      1 <0>        -0.1153
      4 C4        -10.8086    0.2888    0.1114 C.ar      1 <0>        -0.1114
      5 C5         -9.4485    0.5104    0.0412 C.ar      1 <0>        -0.1097
      6 C6         -8.5610   -0.4715    0.4838 C.ar      1 <0>         0.0015
      7 C7         -9.0563   -1.6745    0.9900 C.ar      1 <0>        -0.0812
      8 C8         -7.1025   -0.2411    0.4111 C.2       1 <0>         0.2147
      9 N1         -6.1653   -1.1599    0.4352 N.2       1 <0>        -0.2780
     10 N2         -5.0077   -0.6081    0.3523 N.2       1 <0>        -0.3060
     11 C9         -5.1350    0.6976    0.2701 C.2       1 <0>         0.1578
     12 N3         -6.4711    0.9772    0.3100 N.pl3     1 <0>        -0.4153
     13 C10        -7.1009    2.2987    0.2545 C.3       1 <0>         0.0406
     14 C11        -7.2757    2.7118   -1.1842 C.2       1 <0>         0.4557
     15 O1         -6.9114    1.9776   -2.0721 O.co2     1 <0>        -0.6058
     16 S1         -3.8254    1.8692    0.1402 S.3       1 <0>         0.0972
     17 C12        -2.4013    0.7522    0.1579 C.3       1 <0>        -0.1483
     18 C13        -1.1309    1.5561    0.0541 C.2       1 <0>         0.5250
     19 O2         -1.1832    2.7653   -0.0243 O.2       1 <0>        -0.4890
     20 N4          0.0633    0.9314    0.0482 N.am      1 <0>        -0.6658
     21 C14         1.2451    1.6811    0.0397 C.ar      1 <0>         0.1185
     22 C15         2.3616    1.2262    0.7314 C.ar      1 <0>        -0.1469
     23 C16         3.5328    1.9602    0.7223 C.ar      1 <0>        -0.1265
     24 C17         3.5985    3.1552    0.0350 C.ar      1 <0>        -0.0909
     25 C18         2.4810    3.6237   -0.6587 C.ar      1 <0>        -0.0983
     26 C19         1.3003    2.8797   -0.6537 C.ar      1 <0>        -0.0817
     27 C20         2.5480    4.9028   -1.3949 C.2       1 <0>         0.4889
     28 O3          1.5744    5.3086   -1.9974 O.co2     1 <0>        -0.6204
     29 H1        -11.0665   -3.8980    0.8001 H         1 <0>         0.0683
     30 H2        -10.2618   -3.5706    2.3537 H         1 <0>         0.0654
     31 H3        -11.9248   -3.0004    2.0752 H         1 <0>         0.0634
     32 H4        -12.3584   -1.0719    0.6718 H         1 <0>         0.1213
     33 H5        -11.4965    1.0477   -0.2311 H         1 <0>         0.1279
     34 H6         -9.0716    1.4417   -0.3550 H         1 <0>         0.1385
     35 H7         -8.3747   -2.4400    1.3302 H         1 <0>         0.1327
     36 H8         -8.0752    2.2576    0.7416 H         1 <0>         0.1087
     37 H9         -6.4690    3.0242    0.7666 H         1 <0>         0.1050
     38 H10        -2.4672    0.0661   -0.6865 H         1 <0>         0.1266
     39 H11        -2.3968    0.1841    1.0882 H         1 <0>         0.1244
     40 H12         0.1037   -0.0377    0.0458 H         1 <0>         0.4082
     41 H13         2.3151    0.2938    1.2745 H         1 <0>         0.1166
     42 H14         4.3982    1.5994    1.2582 H         1 <0>         0.1184
     43 H15         4.5141    3.7280    0.0340 H         1 <0>         0.1298
     44 H16         0.4327    3.2367   -1.1886 H         1 <0>         0.1461
     45 O4         -7.8359    3.8953   -1.4794 O.co2     1 <0>        -0.7457
     46 O5          3.6889    5.6191   -1.3982 O.co2     1 <0>        -0.7608
@<TRIPOS>BOND
     1    1    2 1
     2    1   29 1
     3    1   30 1
     4    1   31 1
     5    2    7 ar
     6    2    3 ar
     7    3    4 ar
     8    3   32 1
     9    4    5 ar
    10    4   33 1
    11    5    6 ar
    12    5   34 1
    13    6    7 ar
    14    6    8 1
    15    7   35 1
    16    8   12 1
    17    8    9 2
    18    9   10 1
    19   10   11 2
    20   11   12 1
    21   11   16 1
    22   12   13 1
    23   13   14 1
    24   13   36 1
    25   13   37 1
    26   14   15 2
    27   14   45 1
    28   16   17 1
    29   17   18 1
    30   17   38 1
    31   17   39 1
    32   18   19 2
    33   18   20 am
    34   20   21 1
    35   20   40 1
    36   21   26 ar
    37   21   22 ar
    38   22   23 ar
    39   22   41 1
    40   23   24 ar
    41   23   42 1
    42   24   25 ar
    43   24   43 1
    44   25   26 ar
    45   25   27 1
    46   26   44 1
    47   27   28 2
    48   27   46 1
@<TRIPOS>MOLECULE
ZINC16929509
   40    42     0     0     0
SMALL
USER_CHARGES
5-[(5Z)-5-[[4-(carboxymethyloxy)phenyl]methylene]-4-oxo-2-thioxo-thiazolidin-3-yl]-2-hydroxy-benzoic acid
@<TRIPOS>ATOM
      1 C1          0.3760   -9.1234   -0.6700 C.ar      1 <0>        -0.0412
      2 C2          0.3112  -10.4707   -0.3947 C.ar      1 <0>        -0.2167
      3 C3         -0.2790  -11.3410   -1.3039 C.ar      1 <0>         0.1740
      4 C4         -0.8120  -10.8561   -2.4927 C.ar      1 <0>        -0.1656
      5 C5         -0.7574   -9.5100   -2.7759 C.ar      1 <0>        -0.0336
      6 C6         -0.1640   -8.6287   -1.8636 C.ar      1 <0>        -0.1623
      7 C7         -0.1029   -7.1918   -2.1603 C.2       1 <0>         0.1116
      8 C8          0.0139   -6.2943   -1.1486 C.2       1 <0>        -0.2596
      9 C9          0.2472   -4.8376   -1.2051 C.2       1 <0>         0.5412
     10 O1          0.3680   -4.2500   -2.2642 O.2       1 <0>        -0.4462
     11 N1          0.3179   -4.2033   -0.0469 N.am      1 <0>        -0.4679
     12 C10         0.1885   -4.8589    1.1245 C.2       1 <0>         0.2753
     13 S1          0.2565   -4.2225    2.7124 S.2       1 <0>        -0.3448
     14 S2         -0.0732   -6.5512    0.6184 S.3       1 <0>         0.0733
     15 C11         0.5382   -2.8177   -0.0363 C.ar      1 <0>         0.0547
     16 C12        -0.4800   -1.9563    0.3593 C.ar      1 <0>        -0.0670
     17 C13        -0.2709   -0.5926    0.3789 C.ar      1 <0>        -0.1551
     18 C14         0.9541   -0.0697   -0.0083 C.ar      1 <0>         0.1603
     19 C15         1.9848   -0.9313   -0.4086 C.ar      1 <0>        -0.1338
     20 C16         1.7673   -2.3115   -0.4198 C.ar      1 <0>        -0.0235
     21 C17         3.2917   -0.3840   -0.8153 C.2       1 <0>         0.4926
     22 O2          3.4777    0.8167   -0.8041 O.co2     1 <0>        -0.6130
     23 O3          1.1561    1.2721    0.0057 O.3       1 <0>        -0.4730
     24 O4         -0.3348  -12.6696   -1.0300 O.3       1 <0>        -0.2797
     25 C18         0.2316  -13.1009    0.2090 C.3       1 <0>         0.0127
     26 C19         0.0783  -14.5945    0.3385 C.2       1 <0>         0.4703
     27 O5         -0.4607  -15.2249   -0.5401 O.co2     1 <0>        -0.6145
     28 H1          0.8388   -8.4488    0.0350 H         1 <0>         0.1345
     29 H2          0.7236  -10.8529    0.5274 H         1 <0>         0.1395
     30 H3         -1.2694  -11.5367   -3.1955 H         1 <0>         0.1390
     31 H4         -1.1718   -9.1343   -3.6998 H         1 <0>         0.1370
     32 H5         -0.1509   -6.8491   -3.1833 H         1 <0>         0.1603
     33 H6         -1.4374   -2.3574    0.6573 H         1 <0>         0.1239
     34 H7         -1.0645    0.0696    0.6918 H         1 <0>         0.1343
     35 H8          2.5568   -2.9815   -0.7267 H         1 <0>         0.1362
     36 H9          0.9327    1.7121   -0.8259 H         1 <0>         0.3883
     37 H10         1.2897  -12.8407    0.2350 H         1 <0>         0.0720
     38 H11        -0.2837  -12.6099    1.0345 H         1 <0>         0.0723
     39 O6          4.2802   -1.2153   -1.1996 O.co2     1 <0>        -0.7530
     40 O7          0.5405  -15.2245    1.4300 O.co2     1 <0>        -0.7529
@<TRIPOS>BOND
     1    1    6 ar
     2    1    2 ar
     3    1   28 1
     4    2    3 ar
     5    2   29 1
     6    3    4 ar
     7    3   24 1
     8    4    5 ar
     9    4   30 1
    10    5    6 ar
    11    5   31 1
    12    6    7 1
    13    7    8 2
    14    7   32 1
    15    8   14 1
    16    8    9 1
    17    9   10 2
    18    9   11 am
    19   11   12 1
    20   11   15 1
    21   12   13 2
    22   12   14 1
    23   15   20 ar
    24   15   16 ar
    25   16   17 ar
    26   16   33 1
    27   17   18 ar
    28   17   34 1
    29   18   19 ar
    30   18   23 1
    31   19   20 ar
    32   19   21 1
    33   20   35 1
    34   21   22 2
    35   21   39 1
    36   23   36 1
    37   24   25 1
    38   25   26 1
    39   25   37 1
    40   25   38 1
    41   26   27 2
    42   26   40 1
@<TRIPOS>MOLECULE
ZINC13027576
   31    32     0     0     0
SMALL
USER_CHARGES

@<TRIPOS>ATOM
      1 C1         -0.0352    1.3581    0.0593 C.ar      1 <0>        -0.1651
      2 C2          0.0035   -0.0197    0.0048 C.ar      1 <0>        -0.0941
      3 C3          1.2180   -0.6818   -0.0273 C.ar      1 <0>        -0.0919
      4 C4          2.4091    0.0379   -0.0053 C.ar      1 <0>         0.2627
      5 C5          2.3813    1.4216    0.0489 C.ar      1 <0>        -0.2054
      6 C6          1.1549    2.0901    0.0818 C.ar      1 <0>        -0.0873
      7 C7          1.1165    3.5632    0.1396 C.2       1 <0>         0.5220
      8 O1          0.0418    4.1463    0.1679 O.co2     1 <0>        -0.7019
      9 O2          2.1594    4.2018    0.1592 O.co2     1 <0>        -0.6897
     10 N1          3.6335   -0.6358   -0.0374 N.2       1 <0>        -1.0764
     11 S1          5.0456    0.2187   -0.1724 S.o2      1 <0>         2.5855
     12 O3          4.9879    0.9046   -1.4156 O.2       1 <0>        -1.0146
     13 O4          5.2303    0.8957    1.0633 O.2       1 <0>        -1.0138
     14 C8          6.3538   -0.9542   -0.3046 C.ar      1 <0>        -0.6163
     15 C9          6.9790   -1.4223    0.8365 C.ar      1 <0>         0.0415
     16 C10         8.0048   -2.3418    0.7356 C.ar      1 <0>        -0.1710
     17 C11         8.4074   -2.7961   -0.5121 C.ar      1 <0>         0.2028
     18 C12         7.7783   -2.3253   -1.6552 C.ar      1 <0>        -0.1063
     19 C13         6.7495   -1.4092   -1.5486 C.ar      1 <0>         0.0564
     20 N2          8.2056   -2.8074   -2.9877 N.pl3     1 <0>         0.0446
     21 O5          7.6569   -2.3968   -3.9836 O.2       1 <0>        -0.1669
     22 O6          9.1033   -3.6119   -3.0801 O.3       1 <0>        -0.1552
     23 O7          9.4167   -3.7004   -0.6140 O.3       1 <0>        -0.4767
     24 Cl1         1.2563   -2.4160   -0.0947 Cl        1 <0>        -0.1129
     25 H1         -0.9853    1.8712    0.0800 H         1 <0>         0.1174
     26 H2         -0.9174   -0.5837   -0.0126 H         1 <0>         0.1081
     27 H3          3.3044    1.9819    0.0661 H         1 <0>         0.1129
     28 H4          6.6653   -1.0684    1.8075 H         1 <0>         0.1621
     29 H5          8.4933   -2.7065    1.6271 H         1 <0>         0.1556
     30 H6          6.2569   -1.0452   -2.4381 H         1 <0>         0.1706
     31 H7          9.1232   -4.6215   -0.5924 H         1 <0>         0.4032
@<TRIPOS>BOND
     1    1    6 ar
     2    1    2 ar
     3    1   25 1
     4    2    3 ar
     5    2   26 1
     6    3    4 ar
     7    3   24 1
     8    4    5 ar
     9    4   10 1
    10    5    6 ar
    11    5   27 1
    12    6    7 1
    13    7    8 2
    14    7    9 1
    15   10   11 1
    16   11   12 2
    17   11   13 2
    18   11   14 1
    19   14   19 ar
    20   14   15 ar
    21   15   16 ar
    22   15   28 1
    23   16   17 ar
    24   16   29 1
    25   17   18 ar
    26   17   23 1
    27   18   19 ar
    28   18   20 1
    29   19   30 1
    30   20   21 2
    31   20   22 1
    32   23   31 1
@<TRIPOS>MOLECULE
ZINC13217851
   50    53     0     0     0
SMALL
USER_CHARGES

@<TRIPOS>ATOM
      1 C1          1.7128    2.3288   -0.0818 C.ar      1 <0>        -0.1606
      2 C2          0.8926    2.7863   -1.0968 C.ar      1 <0>        -0.0834
      3 C3          0.0727    1.9048   -1.7740 C.ar      1 <0>        -0.2128
      4 C4          0.0728    0.5592   -1.4353 C.ar      1 <0>         0.1576
      5 C5          0.8968    0.1028   -0.4171 C.ar      1 <0>        -0.0961
      6 C6          1.7148    0.9887    0.2575 C.ar      1 <0>        -0.0636
      7 C7          0.8992   -1.3579   -0.0464 C.3       1 <0>         0.2584
      8 H1          1.5403   -1.5235    0.8194 H         1 <0>         0.0778
      9 C8          1.3771   -2.1896   -1.2137 C.2       1 <0>        -0.4716
     10 C9          0.3630   -3.0241   -1.5394 C.2       1 <0>         0.3003
     11 C10        -0.7761   -2.7814   -0.6329 C.2       1 <0>         0.5145
     12 O1         -1.8363   -3.3744   -0.6712 O.2       1 <0>        -0.5154
     13 N1         -0.4676   -1.8071    0.2442 N.am      1 <0>        -0.5393
     14 C11        -1.2997   -1.3115    1.2518 C.ar      1 <0>         0.1662
     15 C12        -0.8527   -0.2951    2.0866 C.ar      1 <0>        -0.1551
     16 C13        -1.6777    0.1927    3.0809 C.ar      1 <0>        -0.0914
     17 C14        -2.9474   -0.3299    3.2463 C.ar      1 <0>        -0.0548
     18 C15        -3.3955   -1.3418    2.4170 C.ar      1 <0>        -0.0909
     19 C16        -2.5778   -1.8302    1.4170 C.ar      1 <0>        -0.1557
     20 C17        -3.8445    0.2042    4.3331 C.3       1 <0>        -0.1500
     21 C18        -4.6597    1.3509    3.7931 C.2       1 <0>         0.4958
     22 O2         -4.5248    1.7019    2.6334 O.co2     1 <0>        -0.6829
     23 O3         -5.4542    1.9276    4.5161 O.co2     1 <0>        -0.7140
     24 O4          0.3891   -3.9372   -2.5387 O.3       1 <0>        -0.6077
     25 C19         2.6881   -2.1084   -1.8677 C.2       1 <0>         0.4913
     26 O5          2.9037   -2.7481   -2.8821 O.2       1 <0>        -0.4801
     27 C20         3.7386   -1.2576   -1.3006 C.2       1 <0>        -0.0397
     28 C21         4.9571   -0.9769   -1.8803 C.2       1 <0>        -0.1742
     29 C22         5.6356   -0.1290   -0.9930 C.2       1 <0>        -0.2232
     30 C23         4.8231    0.0702    0.0696 C.2       1 <0>        -0.0435
     31 O6          3.6824   -0.6052   -0.1210 O.3       1 <0>        -0.1428
     32 O7         -0.7333   -0.3100   -2.0998 O.3       1 <0>        -0.2842
     33 C24        -1.6407    0.2462   -3.0534 C.3       1 <0>         0.1571
     34 C25        -2.5048   -0.8189   -3.5877 C.1       1 <0>         0.2083
     35 N2         -3.1718   -1.6409   -4.0000 N.1       1 <0>        -0.3903
     36 H2          2.3563    3.0189    0.4437 H         1 <0>         0.1170
     37 H3          0.8928    3.8337   -1.3600 H         1 <0>         0.1180
     38 H4         -0.5683    2.2627   -2.5661 H         1 <0>         0.1252
     39 H5          2.3563    0.6339    1.0507 H         1 <0>         0.1281
     40 H6          0.1390    0.1130    1.9584 H         1 <0>         0.1183
     41 H7         -1.3308    0.9828    3.7303 H         1 <0>         0.1122
     42 H8         -4.3876   -1.7477    2.5489 H         1 <0>         0.1118
     43 H9         -2.9300   -2.6174    0.7669 H         1 <0>         0.1423
     44 H10        -4.5119   -0.5869    4.6748 H         1 <0>         0.0632
     45 H11        -3.2362    0.5522    5.1680 H         1 <0>         0.0634
     46 H12         5.3185   -1.3391   -2.8315 H         1 <0>         0.1474
     47 H13         6.6226    0.2868   -1.1321 H         1 <0>         0.1422
     48 H14         5.0551    0.6788    0.9311 H         1 <0>         0.1967
     49 H15        -2.2559    1.0050   -2.5699 H         1 <0>         0.1065
     50 H16        -1.0775    0.7004   -3.8687 H         1 <0>         0.1037
@<TRIPOS>BOND
     1    1    6 ar
     2    1    2 ar
     3    1   36 1
     4    2    3 ar
     5    2   37 1
     6    3    4 ar
     7    3   38 1
     8    4    5 ar
     9    4   32 1
    10    5    6 ar
    11    5    7 1
    12    6   39 1
    13    7    8 1
    14    7   13 1
    15    7    9 1
    16    9   10 2
    17    9   25 1
    18   10   11 1
    19   10   24 1
    20   11   12 2
    21   11   13 am
    22   13   14 1
    23   14   19 ar
    24   14   15 ar
    25   15   16 ar
    26   15   40 1
    27   16   17 ar
    28   16   41 1
    29   17   18 ar
    30   17   20 1
    31   18   19 ar
    32   18   42 1
    33   19   43 1
    34   20   21 1
    35   20   44 1
    36   20   45 1
    37   21   22 2
    38   21   23 1
    39   25   26 2
    40   25   27 1
    41   27   31 1
    42   27   28 2
    43   28   29 1
    44   28   46 1
    45   29   30 2
    46   29   47 1
    47   30   31 1
    48   30   48 1
    49   32   33 1
    50   33   34 1
    51   33   49 1
    52   33   50 1
    53   34   35 3
@<TRIPOS>MOLECULE
ZINC15821344
   42    44     0     0     0
SMALL
USER_CHARGES

@<TRIPOS>ATOM
      1 C1          0.1083    1.3484   -0.4866 C.3       1 <0>        -0.1504
      2 C2          0.1202    0.3987    0.7129 C.3       1 <0>         0.0085
      3 H1          0.2672   -0.6239    0.3653 H         1 <0>         0.0714
      4 C3         -1.1937    0.4967    1.4443 C.2       1 <0>         0.5045
      5 O1         -2.2240    0.1427    0.8969 O.co2     1 <0>        -0.6934
      6 O2         -1.2265    0.9300    2.5835 O.co2     1 <0>        -0.6716
      7 O3          1.1847    0.7594    1.5955 O.3       1 <0>        -0.2793
      8 C4          2.3826    0.1564    1.3941 C.ar      1 <0>         0.1700
      9 C5          3.4307    0.3836    2.2815 C.ar      1 <0>        -0.1776
     10 C6          4.6390   -0.2203    2.0846 C.ar      1 <0>         0.0405
     11 C7          4.8232   -1.0728    0.9840 C.ar      1 <0>        -0.1474
     12 C8          3.7616   -1.2980    0.0928 C.ar      1 <0>        -0.0417
     13 C9          2.5569   -0.6916    0.3040 C.ar      1 <0>        -0.2434
     14 C10         6.1140   -1.7221    0.7667 C.2       1 <0>         0.0907
     15 C11         6.7635   -2.3431    1.8217 C.2       1 <0>        -0.2759
     16 C12         6.0782   -2.6115    3.0958 C.2       1 <0>         0.4935
     17 O4          4.7881   -2.2578    3.2738 O.3       1 <0>        -0.6009
     18 N1          6.7554   -3.2077    4.0620 N.2       1 <0>        -0.6630
     19 C13         8.0280   -3.5682    3.9149 C.2       1 <0>         0.6667
     20 O5          8.5837   -4.1136    4.8517 O.2       1 <0>        -0.5730
     21 N2          8.7322   -3.3645    2.7920 N.am      1 <0>        -0.5535
     22 C14         8.1726   -2.7708    1.7160 C.2       1 <0>         0.5700
     23 O6          8.8097   -2.5902    0.6952 O.2       1 <0>        -0.5257
     24 C15        10.0695   -3.7795    2.7324 C.ar      1 <0>         0.1780
     25 C16        11.0865   -2.8384    2.6448 C.ar      1 <0>        -0.1005
     26 C17        12.4035   -3.2500    2.5862 C.ar      1 <0>        -0.0830
     27 C18        12.7099   -4.5990    2.6146 C.ar      1 <0>        -0.0968
     28 C19        11.6983   -5.5389    2.7019 C.ar      1 <0>        -0.0830
     29 C20        10.3800   -5.1323    2.7666 C.ar      1 <0>        -0.0919
     30 Br1        14.5142   -5.1590    2.5335 Br        1 <0>        -0.0659
     31 H2          1.0587    1.2775   -1.0156 H         1 <0>         0.0479
     32 H3         -0.7036    1.0733   -1.1598 H         1 <0>         0.0699
     33 H4         -0.0387    2.3710   -0.1390 H         1 <0>         0.0569
     34 H5          3.2876    1.0395    3.1276 H         1 <0>         0.1255
     35 H6          5.4516   -0.0426    2.7734 H         1 <0>         0.1180
     36 H7          3.8969   -1.9523   -0.7557 H         1 <0>         0.1163
     37 H8          1.7384   -0.8670   -0.3785 H         1 <0>         0.1262
     38 H9          6.5618   -1.7182   -0.2160 H         1 <0>         0.1321
     39 H10        10.8479   -1.7853    2.6222 H         1 <0>         0.1309
     40 H11        13.1949   -2.5183    2.5177 H         1 <0>         0.1335
     41 H12        11.9401   -6.5913    2.7236 H         1 <0>         0.1339
     42 H13         9.5910   -5.8662    2.8396 H         1 <0>         0.1331
@<TRIPOS>BOND
     1    1    2 1
     2    1   31 1
     3    1   32 1
     4    1   33 1
     5    2    3 1
     6    2    4 1
     7    2    7 1
     8    4    5 2
     9    4    6 1
    10    7    8 1
    11    8   13 ar
    12    8    9 ar
    13    9   10 ar
    14    9   34 1
    15   10   11 ar
    16   10   35 1
    17   11   12 ar
    18   11   14 1
    19   12   13 ar
    20   12   36 1
    21   13   37 1
    22   14   15 2
    23   14   38 1
    24   15   22 1
    25   15   16 1
    26   16   17 1
    27   16   18 2
    28   18   19 1
    29   19   20 2
    30   19   21 am
    31   21   22 am
    32   21   24 1
    33   22   23 2
    34   24   29 ar
    35   24   25 ar
    36   25   26 ar
    37   25   39 1
    38   26   27 ar
    39   26   40 1
    40   27   28 ar
    41   27   30 1
    42   28   29 ar
    43   28   41 1
    44   29   42 1
@<TRIPOS>MOLECULE
ZINC13278425
   36    38     0     0     0
SMALL
USER_CHARGES
1-(3-carboxy-4-hydroxy-phenyl)sulfonylindoline-5-carboxylic acid
@<TRIPOS>ATOM
      1 C1          4.2438   -0.4717   -0.0423 C.ar      1 <0>        -0.0397
      2 C2          3.6092    0.7465   -0.0288 C.ar      1 <0>        -0.1614
      3 C3          2.2107    0.8160   -0.0147 C.ar      1 <0>         0.1472
      4 C4          1.4720   -0.3614   -0.0139 C.ar      1 <0>        -0.1521
      5 C5          2.0955   -1.5772   -0.0268 C.ar      1 <0>        -0.0465
      6 C6          3.4916   -1.6507   -0.0414 C.ar      1 <0>        -0.1362
      7 C7          4.1658   -2.9612   -0.0553 C.2       1 <0>         0.4960
      8 O1          3.5080   -3.9830   -0.0541 O.co2     1 <0>        -0.6412
      9 C8          0.0021   -0.0041    0.0020 C.3       1 <0>        -0.0740
     10 C9         -0.0188    1.5333    0.0105 C.3       1 <0>         0.1175
     11 N1          1.3895    1.9368   -0.0008 N.pl3     1 <0>        -0.9346
     12 S1          1.9255    3.5037    0.0016 S.o2      1 <0>         2.7003
     13 O2          3.2301    3.4874   -0.5615 O.2       1 <0>        -0.9377
     14 O3          0.8736    4.2937   -0.5356 O.2       1 <0>        -0.9594
     15 C10         2.1100    3.9885    1.6855 C.ar      1 <0>        -0.7060
     16 C11         1.0469    4.5726    2.3554 C.ar      1 <0>        -0.0134
     17 C12         1.1771    4.9524    3.6762 C.ar      1 <0>        -0.1869
     18 C13         2.3802    4.7607    4.3395 C.ar      1 <0>         0.1938
     19 C14         3.4600    4.1750    3.6639 C.ar      1 <0>        -0.1610
     20 C15         3.3123    3.7904    2.3283 C.ar      1 <0>         0.0450
     21 C16         4.7433    3.9656    4.3581 C.2       1 <0>         0.4891
     22 O4          4.8678    4.3014    5.5192 O.co2     1 <0>        -0.6181
     23 O5          2.5114    5.1386    5.6356 O.3       1 <0>        -0.4745
     24 H1          5.3227   -0.5190   -0.0532 H         1 <0>         0.1403
     25 H2          4.1922    1.6557   -0.0295 H         1 <0>         0.1416
     26 H3          1.5084   -2.4837   -0.0261 H         1 <0>         0.1265
     27 H4         -0.4753   -0.3962    0.9001 H         1 <0>         0.0843
     28 H5         -0.4924   -0.3866   -0.8909 H         1 <0>         0.0843
     29 H6         -0.5270    1.9094   -0.8774 H         1 <0>         0.0833
     30 H7         -0.5099    1.8998    0.9119 H         1 <0>         0.0768
     31 H8          0.1093    4.7278    1.8422 H         1 <0>         0.1358
     32 H9          0.3426    5.4035    4.1925 H         1 <0>         0.1322
     33 H10         4.1395    3.3389    1.8009 H         1 <0>         0.1536
     34 H11         2.8201    6.0477    5.7509 H         1 <0>         0.3918
     35 O6          5.5117   -3.0265   -0.0694 O.co2     1 <0>        -0.7551
     36 O7          5.7785    3.4019    3.7050 O.co2     1 <0>        -0.7418
@<TRIPOS>BOND
     1    1    6 ar
     2    1    2 ar
     3    1   24 1
     4    2    3 ar
     5    2   25 1
     6    3   11 1
     7    3    4 ar
     8    4    5 ar
     9    4    9 1
    10    5    6 ar
    11    5   26 1
    12    6    7 1
    13    7    8 2
    14    7   35 1
    15    9   10 1
    16    9   27 1
    17    9   28 1
    18   10   11 1
    19   10   29 1
    20   10   30 1
    21   11   12 1
    22   12   13 2
    23   12   14 2
    24   12   15 1
    25   15   20 ar
    26   15   16 ar
    27   16   17 ar
    28   16   31 1
    29   17   18 ar
    30   17   32 1
    31   18   19 ar
    32   18   23 1
    33   19   20 ar
    34   19   21 1
    35   20   33 1
    36   21   22 2
    37   21   36 1
    38   23   34 1
@<TRIPOS>MOLECULE
ZINC35588034
   34    36     0     0     0
SMALL
USER_CHARGES

@<TRIPOS>ATOM
      1 C1          0.1384    1.1564   -0.8696 C.ar      1 <0>        -0.1178
      2 C2          1.3196    1.8678   -0.8346 C.ar      1 <0>        -0.0596
      3 C3          2.3886    1.4029   -0.0640 C.ar      1 <0>        -0.0339
      4 C4          2.2518    0.2187    0.6663 C.ar      1 <0>        -0.0435
      5 C5          1.0648   -0.4816    0.6214 C.ar      1 <0>        -0.0529
      6 C6          0.0104   -0.0148   -0.1442 C.ar      1 <0>        -0.0650
      7 N1          0.9181   -1.7359    1.3935 N.pl3     1 <0>         0.0389
      8 O1          1.8383   -2.1452    2.0624 O.2       1 <0>        -0.1614
      9 O2         -0.1220   -2.3511    1.3552 O.3       1 <0>        -0.1719
     10 C7          3.6537    2.1566   -0.0217 C.2       1 <0>        -0.1065
     11 C8          3.6406    3.4981   -0.1164 C.2       1 <0>         0.0530
     12 C9          4.9071    4.2402   -0.2359 C.ar      1 <0>         0.3574
     13 N2          4.8644    5.5594   -0.3220 N.ar      1 <0>        -0.5694
     14 C10         5.9950    6.2679   -0.4318 C.ar      1 <0>         0.1655
     15 C11         5.9824    7.6673   -0.5245 C.ar      1 <0>        -0.0953
     16 C12         7.1833    8.3520   -0.6362 C.ar      1 <0>        -0.1092
     17 C13         8.4031    7.6547   -0.6568 C.ar      1 <0>        -0.1263
     18 C14         8.4310    6.2969   -0.5677 C.ar      1 <0>        -0.0652
     19 C15         7.2340    5.5795   -0.4540 C.ar      1 <0>        -0.2165
     20 C16         7.2187    4.1650   -0.3583 C.ar      1 <0>         0.4726
     21 O3          8.3718    3.4574   -0.3743 O.3       1 <0>        -0.6826
     22 N3          6.0529    3.5550   -0.2476 N.ar      1 <0>        -0.6357
     23 C17         7.1801    9.8259   -0.7348 C.2       1 <0>         0.5251
     24 O4          6.1215   10.4375   -0.7177 O.co2     1 <0>        -0.6915
     25 O5          8.2361   10.4344   -0.8334 O.co2     1 <0>        -0.6944
     26 Cl1         2.1309    4.3549   -0.0977 Cl        1 <0>        -0.0576
     27 H1         -0.6902    1.5169   -1.4611 H         1 <0>         0.1460
     28 H2          1.4181    2.7817   -1.4017 H         1 <0>         0.1543
     29 H3          3.0738   -0.1469    1.2638 H         1 <0>         0.1570
     30 H4         -0.9168   -0.5676   -0.1755 H         1 <0>         0.1478
     31 H5          4.5916    1.6320    0.0853 H         1 <0>         0.1709
     32 H6          5.0467    8.2065   -0.5093 H         1 <0>         0.1294
     33 H7          9.3295    8.2028   -0.7447 H         1 <0>         0.1196
     34 H8          9.3754    5.7733   -0.5851 H         1 <0>         0.1184
@<TRIPOS>BOND
     1    1    6 ar
     2    1    2 ar
     3    1   27 1
     4    2    3 ar
     5    2   28 1
     6    3    4 ar
     7    3   10 1
     8    4    5 ar
     9    4   29 1
    10    5    6 ar
    11    5    7 1
    12    6   30 1
    13    7    8 2
    14    7    9 1
    15   10   11 2
    16   10   31 1
    17   11   12 1
    18   11   26 1
    19   12   22 ar
    20   12   13 ar
    21   13   14 ar
    22   14   19 ar
    23   14   15 ar
    24   15   16 ar
    25   15   32 1
    26   16   17 ar
    27   16   23 1
    28   17   18 ar
    29   17   33 1
    30   18   19 ar
    31   18   34 1
    32   19   20 ar
    33   20   21 1
    34   20   22 ar
    35   23   24 2
    36   23   25 1
@<TRIPOS>MOLECULE
ZINC39704085
   49    51     0     0     0
SMALL
USER_CHARGES

@<TRIPOS>ATOM
      1 C1          0.0697    2.0131    0.8306 C.3       1 <0>        -0.1662
      2 C2          0.1844    0.5174    0.5296 C.3       1 <0>         0.1587
      3 H1          0.8813    0.3575   -0.2931 H         1 <0>         0.0873
      4 C3         -1.1685   -0.0377    0.1699 C.2       1 <0>        -0.0737
      5 C4         -1.5093   -0.9861    1.0374 C.2       1 <0>        -0.1926
      6 C5         -0.4166   -1.1555    2.0599 C.3       1 <0>         0.1770
      7 H2         -0.8054   -0.9446    3.0561 H         1 <0>         0.0897
      8 N1          0.6502   -0.1982    1.7248 N.pl3     1 <0>        -0.6246
      9 C6          1.8579   -0.0076    2.4030 C.ar      1 <0>         0.2454
     10 C7          2.1557   -0.7743    3.5220 C.ar      1 <0>        -0.1673
     11 C8          3.3496   -0.5845    4.1901 C.ar      1 <0>        -0.0990
     12 C9          4.2493    0.3693    3.7450 C.ar      1 <0>         0.0305
     13 C10         3.9544    1.1348    2.6295 C.ar      1 <0>        -0.1044
     14 C11         2.7641    0.9449    1.9552 C.ar      1 <0>        -0.1751
     15 F1          5.4163    0.5535    4.4003 F         1 <0>        -0.1491
     16 C12         0.1290   -2.5839    2.0063 C.3       1 <0>        -0.1770
     17 C13        -2.7567   -1.7490    1.0040 C.2       1 <0>         0.4303
     18 O1         -3.5357   -1.5979    0.0862 O.2       1 <0>        -0.4300
     19 C14        -3.0743   -2.7226    2.1095 C.3       1 <0>        -0.1680
     20 S1         -4.7424   -3.3921    1.8648 S.3       1 <0>         0.0025
     21 C15        -4.9608   -4.4979    3.2191 C.ar      1 <0>         0.2536
     22 N2         -6.1001   -5.1682    3.3419 N.ar      1 <0>        -0.5770
     23 C16        -6.2592   -6.0006    4.3651 C.ar      1 <0>         0.4209
     24 O2         -7.4112   -6.6983    4.5157 O.3       1 <0>        -0.6588
     25 C17        -5.2163   -6.1426    5.2815 C.ar      1 <0>        -0.0379
     26 N3         -4.1067   -5.4497    5.1072 N.ar      1 <0>        -0.2055
     27 N4         -3.9820   -4.6554    4.1021 N.ar      1 <0>        -0.4087
     28 C18        -5.3557   -7.0759    6.4565 C.3       1 <0>        -0.0106
     29 C19        -4.8556   -8.4677    6.0645 C.3       1 <0>        -0.1653
     30 C20        -4.9950   -9.4009    7.2395 C.2       1 <0>         0.4977
     31 O3         -5.4520   -8.9909    8.2928 O.co2     1 <0>        -0.7013
     32 O4         -4.6507  -10.5660    7.1368 O.co2     1 <0>        -0.7189
     33 H3          1.0463    2.4016    1.1193 H         1 <0>         0.0699
     34 H4         -0.2813    2.5368   -0.0585 H         1 <0>         0.0696
     35 H5         -0.6377    2.1665    1.6456 H         1 <0>         0.0648
     36 H6         -1.7711    0.2858   -0.6660 H         1 <0>         0.1602
     37 H7          1.4541   -1.5181    3.8697 H         1 <0>         0.1397
     38 H8          3.5814   -1.1803    5.0606 H         1 <0>         0.1359
     39 H9          4.6575    1.8785    2.2843 H         1 <0>         0.1313
     40 H10         2.5365    1.5391    1.0826 H         1 <0>         0.1322
     41 H11         0.4112   -2.8269    0.9819 H         1 <0>         0.0617
     42 H12         1.0032   -2.6634    2.6525 H         1 <0>         0.0724
     43 H13        -0.6386   -3.2790    2.3463 H         1 <0>         0.0826
     44 H14        -2.3502   -3.5372    2.0955 H         1 <0>         0.1291
     45 H15        -3.0259   -2.2099    3.0702 H         1 <0>         0.1238
     46 H16        -4.7650   -6.6994    7.2916 H         1 <0>         0.0616
     47 H17        -6.4036   -7.1359    6.7505 H         1 <0>         0.0769
     48 H18        -5.4463   -8.8442    5.2294 H         1 <0>         0.0561
     49 H19        -3.8077   -8.4077    5.7704 H         1 <0>         0.0497
@<TRIPOS>BOND
     1    1    2 1
     2    1   33 1
     3    1   34 1
     4    1   35 1
     5    2    3 1
     6    2    8 1
     7    2    4 1
     8    4    5 2
     9    4   36 1
    10    5    6 1
    11    5   17 1
    12    6    7 1
    13    6    8 1
    14    6   16 1
    15    8    9 1
    16    9   14 ar
    17    9   10 ar
    18   10   11 ar
    19   10   37 1
    20   11   12 ar
    21   11   38 1
    22   12   13 ar
    23   12   15 1
    24   13   14 ar
    25   13   39 1
    26   14   40 1
    27   16   41 1
    28   16   42 1
    29   16   43 1
    30   17   18 2
    31   17   19 1
    32   19   20 1
    33   19   44 1
    34   19   45 1
    35   20   21 1
    36   21   22 ar
    37   21   27 ar
    38   22   23 ar
    39   23   24 1
    40   23   25 ar
    41   25   26 ar
    42   25   28 1
    43   26   27 ar
    44   28   29 1
    45   28   46 1
    46   28   47 1
    47   29   30 1
    48   29   48 1
    49   29   49 1
    50   30   31 2
    51   30   32 1
@<TRIPOS>MOLECULE
ZINC16933226
   37    40     0     0     0
SMALL
USER_CHARGES

@<TRIPOS>ATOM
      1 C1         -0.0157    1.2991    0.7302 C.ar      1 <0>        -0.0999
      2 C2          1.1667    1.9814    0.9140 C.ar      1 <0>        -0.0897
      3 C3          2.3815    1.3546    0.6698 C.ar      1 <0>         0.0203
      4 C4          2.4105    0.0276    0.2359 C.ar      1 <0>         0.0253
      5 C5          1.2305   -0.6636    0.0491 C.ar      1 <0>        -0.0878
      6 C6          0.0051   -0.0316    0.2956 C.ar      1 <0>        -0.0328
      7 C7         -1.2531   -0.7622    0.0994 C.2       1 <0>        -0.0494
      8 C8         -2.4383   -0.1045    0.1722 C.2       1 <0>        -0.1555
      9 C9         -3.8210   -0.6365    0.1650 C.2       1 <0>         0.5231
     10 O1         -4.0503   -1.8328    0.0855 O.2       1 <0>        -0.5473
     11 N1         -4.7876    0.2510    0.2493 N.2       1 <0>        -0.7015
     12 C10        -4.5529    1.5504    0.3363 C.2       1 <0>         0.4178
     13 S1         -2.7697    1.6475    0.3118 S.3       1 <0>        -0.1238
     14 N2         -5.4603    2.5753    0.4291 N.2       1 <0>        -0.5516
     15 C11        -6.8026    2.2967    0.6699 C.ar      1 <0>         0.1539
     16 C12        -7.1606    1.1189    1.3247 C.ar      1 <0>        -0.1679
     17 C13        -8.4729    0.8355    1.5661 C.ar      1 <0>        -0.0607
     18 C14        -9.4712    1.7286    1.1564 C.ar      1 <0>        -0.1989
     19 C15        -9.1149    2.9172    0.4964 C.ar      1 <0>         0.1387
     20 C16        -7.7797    3.1959    0.2621 C.ar      1 <0>        -0.1792
     21 O2        -10.0738    3.7884    0.0958 O.3       1 <0>        -0.4779
     22 C17       -10.8842    1.4240    1.4149 C.2       1 <0>         0.5263
     23 O3        -11.1917    0.3880    1.9894 O.co2     1 <0>        -0.7051
     24 O4        -11.7544    2.2061    1.0558 O.co2     1 <0>        -0.6877
     25 O5          3.7129   -0.3478    0.0708 O.3       1 <0>        -0.3121
     26 C18         4.4618    0.8805    0.0123 C.3       1 <0>         0.2135
     27 O6          3.6647    1.8051    0.7752 O.3       1 <0>        -0.3111
     28 H1         -0.9582    1.7890    0.9256 H         1 <0>         0.1589
     29 H2          1.1488    3.0080    1.2490 H         1 <0>         0.1368
     30 H3          1.2521   -1.6900   -0.2861 H         1 <0>         0.1382
     31 H4         -1.2358   -1.8229   -0.1029 H         1 <0>         0.1477
     32 H5         -6.3946    0.4270    1.6423 H         1 <0>         0.1296
     33 H6         -8.7425   -0.0789    2.0735 H         1 <0>         0.1172
     34 H7         -7.4981    4.1091   -0.2412 H         1 <0>         0.1134
     35 H8        -10.2990    4.4569    0.7572 H         1 <0>         0.3731
     36 H9          5.4429    0.7528    0.4697 H         1 <0>         0.1262
     37 H10         4.5603    1.2200   -1.0188 H         1 <0>         0.0798
@<TRIPOS>BOND
     1    1    6 ar
     2    1    2 ar
     3    1   28 1
     4    2    3 ar
     5    2   29 1
     6    3   27 1
     7    3    4 ar
     8    4    5 ar
     9    4   25 1
    10    5    6 ar
    11    5   30 1
    12    6    7 1
    13    7    8 2
    14    7   31 1
    15    8   13 1
    16    8    9 1
    17    9   10 2
    18    9   11 1
    19   11   12 2
    20   12   13 1
    21   12   14 1
    22   14   15 1
    23   15   20 ar
    24   15   16 ar
    25   16   17 ar
    26   16   32 1
    27   17   18 ar
    28   17   33 1
    29   18   19 ar
    30   18   22 1
    31   19   20 ar
    32   19   21 1
    33   20   34 1
    34   21   35 1
    35   22   23 2
    36   22   24 1
    37   25   26 1
    38   26   27 1
    39   26   36 1
    40   26   37 1
@<TRIPOS>MOLECULE
ZINC63849135
   39    40     0     0     0
SMALL
USER_CHARGES

@<TRIPOS>ATOM
      1 C1         -0.0187    1.5258    0.0104 C.3       1 <0>        -0.1405
      2 C2          0.0021   -0.0041    0.0020 C.3       1 <0>        -0.1162
      3 C3         -1.4333   -0.5336    0.0129 C.3       1 <0>        -0.6014
      4 S1         -1.4087   -2.3475    0.0029 S.o2      1 <0>         2.5104
      5 O1         -0.9086   -2.8233   -1.2391 O.2       1 <0>        -1.0405
      6 O2         -0.8850   -2.8366    1.2300 O.2       1 <0>        -1.0407
      7 N1         -3.0031   -2.7948    0.0157 N.2       1 <0>        -1.1100
      8 C4         -3.3496   -4.1512    0.0117 C.ar      1 <0>         0.1976
      9 C5         -2.3564   -5.1215    0.0028 C.ar      1 <0>        -0.2116
     10 C6         -2.6982   -6.4595   -0.0016 C.ar      1 <0>        -0.1304
     11 C7         -4.0351   -6.8345    0.0034 C.ar      1 <0>         0.1880
     12 C8         -5.0284   -5.8642    0.0128 C.ar      1 <0>        -0.2175
     13 C9         -4.6866   -4.5263    0.0225 C.ar      1 <0>        -0.1353
     14 N2         -4.3817   -8.1910   -0.0015 N.2       1 <0>        -1.0927
     15 S2         -5.9761   -8.6382    0.0045 S.o2      1 <0>         2.6044
     16 O3         -6.5095   -8.2237    1.2547 O.2       1 <0>        -1.0332
     17 O4         -6.5223   -8.2114   -1.2360 O.2       1 <0>        -1.0337
     18 C10        -6.0231  -10.3996   -0.0039 C.2       1 <0>        -0.6395
     19 C11        -6.0460  -11.2579    1.0449 C.2       1 <0>        -0.0582
     20 C12        -6.0831  -12.6174    0.7978 C.2       1 <0>        -0.1786
     21 C13        -6.0954  -13.0521   -0.4860 C.2       1 <0>        -0.1596
     22 S3         -6.0608  -11.5166   -1.3961 S.3       1 <0>         0.1301
     23 C14        -6.1339  -14.4648   -1.0093 C.3       1 <0>        -0.0640
     24 H1          1.0039    1.9031    0.0027 H         1 <0>         0.0500
     25 H2         -0.5459    1.8868   -0.8726 H         1 <0>         0.0536
     26 H3         -0.5289    1.8773    0.9072 H         1 <0>         0.0536
     27 H4          0.5123   -0.3556   -0.8948 H         1 <0>         0.0687
     28 H5          0.5293   -0.3651    0.8851 H         1 <0>         0.0687
     29 H6         -1.9435   -0.1821    0.9097 H         1 <0>         0.1137
     30 H7         -1.9605   -0.1726   -0.8702 H         1 <0>         0.1138
     31 H8         -1.3165   -4.8298   -0.0011 H         1 <0>         0.0876
     32 H9         -1.9256   -7.2141   -0.0093 H         1 <0>         0.0938
     33 H10        -6.0683   -6.1559    0.0167 H         1 <0>         0.0822
     34 H11        -5.4591   -3.7716    0.0339 H         1 <0>         0.0936
     35 H12        -6.0352  -10.8852    2.0585 H         1 <0>         0.1414
     36 H13        -6.1016  -13.3228    1.6155 H         1 <0>         0.1296
     37 H14        -7.1705  -14.7775   -1.1351 H         1 <0>         0.0745
     38 H15        -5.6215  -14.5104   -1.9702 H         1 <0>         0.0721
     39 H16        -5.6377  -15.1283   -0.3010 H         1 <0>         0.0760
@<TRIPOS>BOND
     1    1    2 1
     2    1   24 1
     3    1   25 1
     4    1   26 1
     5    2    3 1
     6    2   27 1
     7    2   28 1
     8    3    4 1
     9    3   29 1
    10    3   30 1
    11    4    5 2
    12    4    6 2
    13    4    7 1
    14    7    8 1
    15    8   13 ar
    16    8    9 ar
    17    9   10 ar
    18    9   31 1
    19   10   11 ar
    20   10   32 1
    21   11   12 ar
    22   11   14 1
    23   12   13 ar
    24   12   33 1
    25   13   34 1
    26   14   15 1
    27   15   16 2
    28   15   17 2
    29   15   18 1
    30   18   22 1
    31   18   19 2
    32   19   20 1
    33   19   35 1
    34   20   21 2
    35   20   36 1
    36   21   22 1
    37   21   23 1
    38   23   37 1
    39   23   38 1
    40   23   39 1
@<TRIPOS>MOLECULE
ZINC19682821
   36    38     0     0     0
SMALL
USER_CHARGES
2-[2-[(E)-[3-(4-pyridyl)-5-sulfanyl-1,2,4-triazol-4-yl]iminomethyl]phenoxy]acetic acid
@<TRIPOS>ATOM
      1 C1          2.2505    5.6317    0.0118 C.ar      1 <0>        -0.1839
      2 C2          1.0419    6.3074    0.0274 C.ar      1 <0>        -0.0596
      3 C3         -0.1499    5.6082    0.0341 C.ar      1 <0>        -0.2270
      4 C4         -0.1426    4.2226    0.0261 C.ar      1 <0>         0.1845
      5 C5          1.0784    3.5343    0.0107 C.ar      1 <0>        -0.1069
      6 C6          2.2763    4.2532    0.0090 C.ar      1 <0>        -0.0434
      7 C7          1.0984    2.0611    0.0026 C.2       1 <0>         0.1481
      8 N1         -0.0169    1.3968    0.0097 N.2       1 <0>        -0.1660
      9 N2          0.0021   -0.0041    0.0020 N.pl3     1 <0>        -0.3514
     10 C8          0.0239   -0.8430    1.0952 C.2       1 <0>         0.1383
     11 N3          0.0363   -2.0741    0.6358 N.2       1 <0>        -0.2637
     12 N4          0.0240   -2.0639   -0.6491 N.2       1 <0>        -0.3362
     13 C9         -0.0031   -0.8249   -1.0918 C.2       1 <0>         0.3897
     14 S1         -0.0354   -0.3181   -2.7790 S.3       1 <0>        -0.7899
     15 C10         0.0317   -0.4354    2.5148 C.ar      1 <0>         0.0746
     16 C11         0.3339    0.8815    2.8841 C.ar      1 <0>        -0.1665
     17 C12         0.3242    1.2196    4.2208 C.ar      1 <0>         0.1018
     18 N5          0.0463    0.3200    5.1456 N.ar      1 <0>        -0.4980
     19 C13        -0.2384   -0.9324    4.8418 C.ar      1 <0>         0.0936
     20 C14        -0.2571   -1.3563    3.5299 C.ar      1 <0>        -0.1468
     21 O1         -1.3132    3.5346    0.0327 O.3       1 <0>        -0.2415
     22 C15        -2.5176    4.3035    0.0484 C.3       1 <0>         0.0121
     23 C16        -3.7055    3.3762    0.0536 C.2       1 <0>         0.4652
     24 O2         -3.5379    2.1797    0.0448 O.co2     1 <0>        -0.5860
     25 O3         -4.9498    3.8796    0.0681 O.co2     1 <0>        -0.7711
     26 H1          3.1768    6.1868    0.0063 H         1 <0>         0.1217
     27 H2          1.0308    7.3874    0.0340 H         1 <0>         0.1206
     28 H3         -1.0884    6.1424    0.0459 H         1 <0>         0.1322
     29 H4          3.2210    3.7299    0.0013 H         1 <0>         0.1297
     30 H5          2.0583    1.5241   -0.0095 H         1 <0>         0.1160
     31 H6          0.5671    1.6217    2.1330 H         1 <0>         0.1325
     32 H7          0.5518    2.2334    4.5153 H         1 <0>         0.1532
     33 H8         -0.4594   -1.6350    5.6317 H         1 <0>         0.1546
     34 H9         -0.4913   -2.3826    3.2887 H         1 <0>         0.1428
     35 H10        -2.5394    4.9324    0.9506 H         1 <0>         0.0626
     36 H11        -2.5558    4.9434   -0.8455 H         1 <0>         0.0642
@<TRIPOS>BOND
     1    1    6 ar
     2    1    2 ar
     3    1   26 1
     4    2    3 ar
     5    2   27 1
     6    3    4 ar
     7    3   28 1
     8    4    5 ar
     9    4   21 1
    10    5    6 ar
    11    5    7 1
    12    6   29 1
    13    7    8 2
    14    7   30 1
    15    8    9 1
    16    9   13 1
    17    9   10 1
    18   10   11 2
    19   10   15 1
    20   11   12 1
    21   12   13 2
    22   13   14 1
    23   15   20 ar
    24   15   16 ar
    25   16   17 ar
    26   16   31 1
    27   17   18 ar
    28   17   32 1
    29   18   19 ar
    30   19   20 ar
    31   19   33 1
    32   20   34 1
    33   21   22 1
    34   22   23 1
    35   22   35 1
    36   22   36 1
    37   23   24 2
    38   23   25 1
@<TRIPOS>MOLECULE
ZINC36825318
   26    27     0     0     0
SMALL
USER_CHARGES

@<TRIPOS>ATOM
      1 C1         -0.0175    1.4420    0.0100 C.2       1 <0>        -0.0605
      2 C2          1.1845    2.0449    0.0017 C.2       1 <0>        -0.2801
      3 S1          2.3278    0.6817   -0.0165 S.3       1 <0>        -0.0380
      4 C3          1.2531   -0.6066   -0.0132 C.2       1 <0>         0.2855
      5 C4          0.0021   -0.0041    0.0020 C.2       1 <0>        -0.3718
      6 C5         -1.2326   -0.7916    0.0100 C.2       1 <0>         0.5855
      7 O1         -1.1789   -2.0077    0.0034 O.2       1 <0>        -0.5322
      8 N1         -2.4283   -0.1699    0.0247 N.am      1 <0>        -0.8799
      9 N2          1.5456   -1.9573   -0.0236 N.2       1 <0>        -0.9620
     10 S2          3.1225   -2.4629   -0.0413 S.o2      1 <0>         2.6096
     11 O2          3.6656   -2.0552   -1.2895 O.2       1 <0>        -1.0104
     12 O3          3.6891   -2.0694    1.2010 O.2       1 <0>        -1.0014
     13 C6          3.1046   -4.2247   -0.0512 C.2       1 <0>        -0.6334
     14 C7          3.5918   -4.9189   -1.1291 C.2       1 <0>        -0.0698
     15 C8          3.5303   -6.3044   -1.0325 C.2       1 <0>        -0.1894
     16 S3          2.7889   -6.5269    0.5734 S.3       1 <0>         0.2602
     17 C9          2.6130   -4.9146    1.0115 C.2       1 <0>        -0.1639
     18 Br1         1.8930   -4.2188    2.6157 Br        1 <0>         0.0431
     19 C10         3.9479   -7.2839   -1.9666 C.2       1 <0>         0.5567
     20 O4          4.4429   -6.9411   -3.0336 O.co2     1 <0>        -0.6683
     21 O5          3.8140   -8.4738   -1.7075 O.co2     1 <0>        -0.6860
     22 H1         -0.9403    2.0029    0.0261 H         1 <0>         0.1169
     23 H2          1.4033    3.1025    0.0050 H         1 <0>         0.1613
     24 H3         -2.4711    0.7991    0.0300 H         1 <0>         0.3856
     25 H4         -3.2461   -0.6915    0.0301 H         1 <0>         0.3839
     26 H5          3.9971   -4.4210   -1.9976 H         1 <0>         0.1587
@<TRIPOS>BOND
     1    1    5 1
     2    1    2 2
     3    1   22 1
     4    2    3 1
     5    2   23 1
     6    3    4 1
     7    4    5 2
     8    4    9 1
     9    5    6 1
    10    6    7 2
    11    6    8 am
    12    8   24 1
    13    8   25 1
    14    9   10 1
    15   10   11 2
    16   10   12 2
    17   10   13 1
    18   13   17 2
    19   13   14 1
    20   14   15 2
    21   14   26 1
    22   15   16 1
    23   15   19 1
    24   16   17 1
    25   17   18 1
    26   19   20 2
    27   19   21 1
@<TRIPOS>MOLECULE
ZINC39870056
   38    40     0     0     0
SMALL
USER_CHARGES

@<TRIPOS>ATOM
      1 C1         -0.8018    0.9106   -0.1302 C.3       1 <0>        -0.0844
      2 C2         -1.3563   -0.4840    0.0063 C.ar      1 <0>        -0.1162
      3 C3         -1.6255   -1.2319   -1.1251 C.ar      1 <0>        -0.1372
      4 C4         -2.1328   -2.5095   -1.0089 C.ar      1 <0>        -0.1199
      5 C5         -2.3765   -3.0520    0.2558 C.ar      1 <0>        -0.1342
      6 C6         -2.1046   -2.2966    1.3978 C.ar      1 <0>        -0.1009
      7 C7         -1.5900   -1.0157    1.2692 C.ar      1 <0>         0.1245
      8 N1         -1.3104   -0.2567    2.4099 N.2       1 <0>        -0.5537
      9 C8         -1.0446   -0.8817    3.6008 C.2       1 <0>         0.4171
     10 N2         -0.8137   -2.1663    3.8209 N.2       1 <0>        -0.6924
     11 C9         -0.5694   -2.6435    5.0213 C.2       1 <0>         0.5205
     12 O1         -0.3575   -3.8305    5.2116 O.2       1 <0>        -0.5396
     13 C10        -0.5651   -1.6612    6.1305 C.2       1 <0>        -0.1470
     14 C11        -0.3480   -1.8487    7.4571 C.2       1 <0>        -0.0620
     15 C12        -0.5555   -0.7414    8.3986 C.ar      1 <0>        -0.0296
     16 C13        -1.1606    0.4449    7.9653 C.ar      1 <0>        -0.1051
     17 C14        -1.3543    1.4817    8.8511 C.ar      1 <0>        -0.1209
     18 C15        -0.9512    1.3544   10.1739 C.ar      1 <0>         0.0656
     19 C16        -0.3475    0.1766   10.6133 C.ar      1 <0>         0.0747
     20 C17        -0.1543   -0.8704    9.7341 C.ar      1 <0>        -0.1209
     21 O2          0.0463    0.0573   11.9095 O.3       1 <0>        -0.4900
     22 O3         -1.1451    2.3806   11.0425 O.3       1 <0>        -0.4900
     23 S1         -0.9185   -0.1578    5.2286 S.3       1 <0>        -0.1327
     24 C18        -2.9195   -4.4180    0.3835 C.2       1 <0>         0.5222
     25 O4         -3.1572   -5.0777   -0.6184 O.co2     1 <0>        -0.7082
     26 O5         -3.1319   -4.8905    1.4913 O.co2     1 <0>        -0.6833
     27 H1          0.2873    0.8687   -0.1456 H         1 <0>         0.0472
     28 H2         -1.1614    1.3554   -1.0581 H         1 <0>         0.0419
     29 H3         -1.1301    1.5165    0.7143 H         1 <0>         0.0680
     30 H4         -1.4382   -0.8143   -2.1033 H         1 <0>         0.1026
     31 H5         -2.3420   -3.0902   -1.8952 H         1 <0>         0.1124
     32 H6         -2.2910   -2.7099    2.3780 H         1 <0>         0.1423
     33 H7         -0.0226   -2.8124    7.8202 H         1 <0>         0.1460
     34 H8         -1.4748    0.5469    6.9371 H         1 <0>         0.1533
     35 H9         -1.8207    2.3963    8.5159 H         1 <0>         0.1333
     36 H10         0.3087   -1.7848   10.0745 H         1 <0>         0.1354
     37 H11        -0.6327   -0.3050   12.4950 H         1 <0>         0.3811
     38 H12        -1.9942    2.3501   11.5041 H         1 <0>         0.3800
@<TRIPOS>BOND
     1    1    2 1
     2    1   27 1
     3    1   28 1
     4    1   29 1
     5    2    7 ar
     6    2    3 ar
     7    3    4 ar
     8    3   30 1
     9    4    5 ar
    10    4   31 1
    11    5    6 ar
    12    5   24 1
    13    6    7 ar
    14    6   32 1
    15    7    8 1
    16    8    9 1
    17    9   23 1
    18    9   10 2
    19   10   11 1
    20   11   12 2
    21   11   13 1
    22   13   14 2
    23   13   23 1
    24   14   15 1
    25   14   33 1
    26   15   20 ar
    27   15   16 ar
    28   16   17 ar
    29   16   34 1
    30   17   18 ar
    31   17   35 1
    32   18   19 ar
    33   18   22 1
    34   19   20 ar
    35   19   21 1
    36   20   36 1
    37   21   37 1
    38   22   38 1
    39   24   25 2
    40   24   26 1
@<TRIPOS>MOLECULE
ZINC16933359
   35    37     0     0     0
SMALL
USER_CHARGES

@<TRIPOS>ATOM
      1 C1          1.2043   -0.6669    0.2865 C.ar      1 <0>        -0.1092
      2 C2          2.3764    0.0207    0.0512 C.ar      1 <0>        -0.1189
      3 C3          2.3934    1.4178    0.1266 C.ar      1 <0>        -0.0281
      4 C4          1.2188    2.1091    0.4409 C.ar      1 <0>        -0.1402
      5 C5          0.0501    1.4066    0.6746 C.ar      1 <0>         0.1097
      6 C6          0.0445    0.0195    0.5971 C.ar      1 <0>        -0.1555
      7 O1         -1.0937    2.0740    0.9803 O.3       1 <0>        -0.4983
      8 C7          3.6403    2.1557   -0.1228 C.2       1 <0>        -0.0585
      9 C8          3.6260    3.5099   -0.1838 C.2       1 <0>        -0.1564
     10 C9          4.7547    4.4703   -0.2497 C.2       1 <0>         0.5224
     11 O2          5.9171    4.0987   -0.2563 O.2       1 <0>        -0.5574
     12 N1          4.4331    5.7437   -0.3009 N.2       1 <0>        -0.7074
     13 C10         3.1763    6.1600   -0.2948 C.2       1 <0>         0.4050
     14 S1          2.2408    4.6408   -0.2154 S.3       1 <0>        -0.1182
     15 N2          2.7067    7.4459   -0.3429 N.2       1 <0>        -0.5370
     16 C11         3.5913    8.5061   -0.5755 C.ar      1 <0>         0.1083
     17 C12         4.7900    8.2759   -1.2444 C.ar      1 <0>        -0.1301
     18 C13         5.6685    9.3136   -1.4780 C.ar      1 <0>        -0.1591
     19 C14         5.3630   10.5964   -1.0473 C.ar      1 <0>         0.0993
     20 C15         4.1569   10.8370   -0.3728 C.ar      1 <0>        -0.1607
     21 C16         3.2690    9.7807   -0.1448 C.ar      1 <0>        -0.0738
     22 C17         3.8249   12.1949    0.0876 C.2       1 <0>         0.5264
     23 O3          2.7720   12.4011    0.6755 O.co2     1 <0>        -0.6995
     24 O4          4.6018   13.1174   -0.1176 O.co2     1 <0>        -0.6838
     25 O5          6.2287   11.6153   -1.2772 O.3       1 <0>        -0.4783
     26 H1          1.1910   -1.7450    0.2237 H         1 <0>         0.1233
     27 H2          3.2803   -0.5187   -0.1907 H         1 <0>         0.1266
     28 H3          1.2242    3.1874    0.5013 H         1 <0>         0.1535
     29 H4         -0.8699   -0.5253    0.7803 H         1 <0>         0.1228
     30 H5         -1.6257    2.3160    0.2100 H         1 <0>         0.3891
     31 H6          4.5678    1.6189   -0.2575 H         1 <0>         0.1451
     32 H7          5.0339    7.2794   -1.5820 H         1 <0>         0.1367
     33 H8          6.5968    9.1268   -1.9975 H         1 <0>         0.1081
     34 H9          2.3365    9.9587    0.3702 H         1 <0>         0.1244
     35 H10         6.0815   12.0749   -2.1152 H         1 <0>         0.3695
@<TRIPOS>BOND
     1    1    6 ar
     2    1    2 ar
     3    1   26 1
     4    2    3 ar
     5    2   27 1
     6    3    4 ar
     7    3    8 1
     8    4    5 ar
     9    4   28 1
    10    5    6 ar
    11    5    7 1
    12    6   29 1
    13    7   30 1
    14    8    9 2
    15    8   31 1
    16    9   14 1
    17    9   10 1
    18   10   11 2
    19   10   12 1
    20   12   13 2
    21   13   14 1
    22   13   15 1
    23   15   16 1
    24   16   21 ar
    25   16   17 ar
    26   17   18 ar
    27   17   32 1
    28   18   19 ar
    29   18   33 1
    30   19   20 ar
    31   19   25 1
    32   20   21 ar
    33   20   22 1
    34   21   34 1
    35   22   23 2
    36   22   24 1
    37   25   35 1
@<TRIPOS>MOLECULE
ZINC63520869
   44    47     0     0     0
SMALL
USER_CHARGES

@<TRIPOS>ATOM
      1 C1         -0.6157    0.8540   -2.3844 C.3       1 <0>        -0.0642
      2 C2         -0.2840   -0.3736   -1.5757 C.2       1 <0>        -0.1854
      3 C3         -0.6499   -0.6555   -0.2717 C.2       1 <0>        -0.2349
      4 C4         -0.2269   -1.8648    0.2793 C.2       1 <0>         0.2966
      5 C5          0.5314   -2.6728   -0.5564 C.2       1 <0>        -0.3619
      6 S1          0.6075   -1.7131   -2.0552 S.3       1 <0>         0.1577
      7 C6          1.1167   -3.9849   -0.2782 C.2       1 <0>         0.0858
      8 C7          2.4396   -4.2878   -0.2914 C.2       1 <0>        -0.2482
      9 C8          2.5456   -5.6700    0.3550 C.3       1 <0>         0.3020
     10 H1          2.9639   -5.5912    1.3584 H         1 <0>         0.1056
     11 N1          1.1837   -6.1715    0.4119 N.2       1 <0>        -0.4917
     12 C9          0.3683   -5.2177    0.0746 C.2       1 <0>         0.2445
     13 C10        -1.1070   -5.3388    0.0609 C.ar      1 <0>        -0.0267
     14 C11        -1.8716   -4.4905   -0.7411 C.ar      1 <0>        -0.0324
     15 C12        -3.2455   -4.6073   -0.7503 C.ar      1 <0>        -0.1565
     16 C13        -3.8673   -5.5654    0.0353 C.ar      1 <0>         0.0974
     17 C14        -3.1121   -6.4104    0.8337 C.ar      1 <0>        -0.1679
     18 C15        -1.7373   -6.3054    0.8456 C.ar      1 <0>        -0.0539
     19 F1         -5.2137   -5.6756    0.0232 F         1 <0>        -0.1487
     20 N2          3.4576   -6.4127   -0.5228 N.pl3     1 <0>        -0.6427
     21 C16         4.5902   -5.7472   -0.9225 C.2       1 <0>         0.6541
     22 O1          5.6807   -6.4726   -1.2378 O.3       1 <0>        -0.6975
     23 N3          4.6640   -4.4384   -1.0125 N.2       1 <0>        -0.7006
     24 C17         3.6093   -3.6291   -0.7355 C.2       1 <0>         0.5618
     25 O2          3.6670   -2.4166   -0.8612 O.2       1 <0>        -0.5307
     26 C18         3.1759   -7.7860   -0.9480 C.3       1 <0>         0.1220
     27 O3         -0.5362   -2.2277    1.5498 O.3       1 <0>        -0.7000
     28 C19        -1.4593    0.2908    0.5093 C.2       1 <0>         0.5663
     29 O4         -2.6725    0.2171    0.4853 O.2       1 <0>        -0.5250
     30 O5         -0.8564    1.2403    1.2523 O.3       1 <0>        -0.3497
     31 C20        -1.7046    2.1259    1.9859 C.3       1 <0>         0.0352
     32 H2         -0.1801    0.7624   -3.3793 H         1 <0>         0.0688
     33 H3         -1.6980    0.9517   -2.4692 H         1 <0>         0.0672
     34 H4         -0.2090    1.7359   -1.8895 H         1 <0>         0.0685
     35 H5         -1.3882   -3.7436   -1.3533 H         1 <0>         0.1467
     36 H6         -3.8381   -3.9511   -1.3704 H         1 <0>         0.1337
     37 H7         -3.6012   -7.1552    1.4441 H         1 <0>         0.1309
     38 H8         -1.1496   -6.9672    1.4645 H         1 <0>         0.1369
     39 H9          2.6051   -7.7691   -1.8765 H         1 <0>         0.0253
     40 H10         4.1145   -8.3166   -1.1082 H         1 <0>         0.0654
     41 H11         2.5985   -8.2943   -0.1758 H         1 <0>         0.0535
     42 H12        -2.3536    2.6633    1.2944 H         1 <0>         0.0493
     43 H13        -2.3136    1.5510    2.6835 H         1 <0>         0.0535
     44 H14        -1.0935    2.8390    2.5393 H         1 <0>         0.0900
@<TRIPOS>BOND
     1    1    2 1
     2    1   32 1
     3    1   33 1
     4    1   34 1
     5    2    6 1
     6    2    3 2
     7    3    4 1
     8    3   28 1
     9    4    5 2
    10    4   27 1
    11    5    6 1
    12    5    7 1
    13    7   12 1
    14    7    8 2
    15    8   24 1
    16    8    9 1
    17    9   10 1
    18    9   11 1
    19    9   20 1
    20   11   12 2
    21   12   13 1
    22   13   18 ar
    23   13   14 ar
    24   14   15 ar
    25   14   35 1
    26   15   16 ar
    27   15   36 1
    28   16   17 ar
    29   16   19 1
    30   17   18 ar
    31   17   37 1
    32   18   38 1
    33   20   21 1
    34   20   26 1
    35   21   22 1
    36   21   23 2
    37   23   24 1
    38   24   25 2
    39   26   39 1
    40   26   40 1
    41   26   41 1
    42   28   29 2
    43   28   30 1
    44   30   31 1
    45   31   42 1
    46   31   43 1
    47   31   44 1
@<TRIPOS>MOLECULE
ZINC13408611
   55    58     0     0     0
SMALL
USER_CHARGES
2-[[2-[[4-cyclopropyl-5-(4-methyl-1-piperidyl)-1,2,4-triazol-3-yl]sulfanyl]acetyl]amino]terephthalic acid
@<TRIPOS>ATOM
      1 C1          1.6972   -6.0490   -0.7223 C.3       1 <0>        -0.1448
      2 C2          1.1532   -4.6881   -1.1614 C.3       1 <0>        -0.0982
      3 C3          0.1176   -4.1989   -0.1452 C.3       1 <0>        -0.1120
      4 C4         -0.3781   -2.8109   -0.5571 C.3       1 <0>         0.0697
      5 N1          0.7571   -1.8809   -0.6125 N.pl3     1 <0>        -0.4495
      6 C5          1.7423   -2.3047   -1.6155 C.3       1 <0>         0.0458
      7 C6          2.3012   -3.6777   -1.2351 C.3       1 <0>        -0.1092
      8 C7          0.3259   -0.5831   -0.8556 C.2       1 <0>         0.4028
      9 N2         -0.9172   -0.2025   -1.0183 N.2       1 <0>        -0.3440
     10 N3         -0.9213    1.1809   -1.2397 N.2       1 <0>        -0.3093
     11 C8          0.3203    1.6001   -1.2048 C.2       1 <0>         0.1947
     12 N4          1.1237    0.5203   -0.9664 N.pl3     1 <0>        -0.4568
     13 C9          2.5839    0.5424   -0.8502 C.3       1 <0>         0.0432
     14 C10         3.2463    1.8822   -0.5232 C.3       1 <0>        -0.1744
     15 C11         3.3673    1.2913   -1.9301 C.3       1 <0>        -0.1764
     16 S1          0.8588    3.2631   -1.4263 S.3       1 <0>         0.0939
     17 C12        -0.6770    4.1890   -1.6994 C.3       1 <0>        -0.1559
     18 C13        -0.3549    5.6466   -1.9058 C.2       1 <0>         0.5277
     19 O1          0.7972    6.0237   -1.8720 O.2       1 <0>        -0.5221
     20 N5         -1.3472    6.5311   -2.1279 N.am      1 <0>        -0.6293
     21 C14        -1.0437    7.8523   -2.4484 C.ar      1 <0>         0.1447
     22 C15        -0.0319    8.1335   -3.3552 C.ar      1 <0>        -0.0916
     23 C16         0.2653    9.4559   -3.6766 C.ar      1 <0>        -0.1066
     24 C17        -0.4472   10.4996   -3.0796 C.ar      1 <0>        -0.1023
     25 C18        -1.4483   10.2260   -2.1756 C.ar      1 <0>        -0.0840
     26 C19        -1.7562    8.9024   -1.8510 C.ar      1 <0>        -0.1395
     27 C20        -2.8299    8.6097   -0.8814 C.2       1 <0>         0.5008
     28 O2         -3.0214    7.4678   -0.5136 O.co2     1 <0>        -0.6402
     29 C21         1.3404    9.7562   -4.6478 C.2       1 <0>         0.4976
     30 O3          1.9601    8.8501   -5.1671 O.co2     1 <0>        -0.6361
     31 H1          0.8785   -6.7662   -0.6647 H         1 <0>         0.0549
     32 H2          2.4343   -6.3965   -1.4462 H         1 <0>         0.0541
     33 H3          2.1665   -5.9539    0.2569 H         1 <0>         0.0559
     34 H4          0.6856   -4.7818   -2.1416 H         1 <0>         0.0702
     35 H5          0.5750   -4.1436    0.8426 H         1 <0>         0.0741
     36 H6         -0.7228   -4.8926   -0.1194 H         1 <0>         0.0756
     37 H7         -1.1050   -2.4536    0.1722 H         1 <0>         0.0918
     38 H8         -0.8475   -2.8697   -1.5391 H         1 <0>         0.0533
     39 H9          1.2628   -2.3658   -2.5924 H         1 <0>         0.0492
     40 H10         2.5554   -1.5798   -1.6549 H         1 <0>         0.0874
     41 H11         2.7930   -3.6142   -0.2645 H         1 <0>         0.0753
     42 H12         3.0210   -3.9989   -1.9881 H         1 <0>         0.0748
     43 H13         3.0360   -0.3576   -0.4333 H         1 <0>         0.1503
     44 H14         2.5957    2.7473   -0.3946 H         1 <0>         0.1239
     45 H15         4.1345    1.8637    0.1084 H         1 <0>         0.1181
     46 H16         4.3349    0.8843   -2.2235 H         1 <0>         0.1132
     47 H17         2.7962    1.7673   -2.7273 H         1 <0>         0.1125
     48 H18        -1.1835    3.8002   -2.5828 H         1 <0>         0.1222
     49 H19        -1.3264    4.0798   -0.8308 H         1 <0>         0.1272
     50 H20        -2.2727    6.2477   -2.0647 H         1 <0>         0.4182
     51 H21         0.5221    7.3280   -3.8141 H         1 <0>         0.1266
     52 H22        -0.2114   11.5238   -3.3282 H         1 <0>         0.1265
     53 H23        -1.9962   11.0354   -1.7163 H         1 <0>         0.1282
     54 O4         -3.5976    9.6088   -0.4043 O.co2     1 <0>        -0.7584
     55 O5          1.6318   11.0346   -4.9559 O.co2     1 <0>        -0.7639
@<TRIPOS>BOND
     1    1    2 1
     2    1   31 1
     3    1   32 1
     4    1   33 1
     5    2    7 1
     6    2    3 1
     7    2   34 1
     8    3    4 1
     9    3   35 1
    10    3   36 1
    11    4    5 1
    12    4   37 1
    13    4   38 1
    14    5    6 1
    15    5    8 1
    16    6    7 1
    17    6   39 1
    18    6   40 1
    19    7   41 1
    20    7   42 1
    21    8   12 1
    22    8    9 2
    23    9   10 1
    24   10   11 2
    25   11   12 1
    26   11   16 1
    27   12   13 1
    28   13   15 1
    29   13   14 1
    30   13   43 1
    31   14   15 1
    32   14   44 1
    33   14   45 1
    34   15   46 1
    35   15   47 1
    36   16   17 1
    37   17   18 1
    38   17   48 1
    39   17   49 1
    40   18   19 2
    41   18   20 am
    42   20   21 1
    43   20   50 1
    44   21   26 ar
    45   21   22 ar
    46   22   23 ar
    47   22   51 1
    48   23   24 ar
    49   23   29 1
    50   24   25 ar
    51   24   52 1
    52   25   26 ar
    53   25   53 1
    54   26   27 1
    55   27   28 2
    56   27   54 1
    57   29   30 2
    58   29   55 1
@<TRIPOS>MOLECULE
ZINC09262823
   43    46     0     0     0
SMALL
USER_CHARGES
3-[2-[(Z)-[1-(2,3-dichlorophenyl)-4,6-dioxo-2-thioxo-hexahydropyrimidin-5-ylidene]methyl]pyrrol-1-yl]benzoic acid
@<TRIPOS>ATOM
      1 C1          4.6647    1.9207   -1.1526 C.ar      1 <0>        -0.1274
      2 C2          3.9188    1.7415   -2.2999 C.ar      1 <0>        -0.0745
      3 C3          2.8318    2.5775   -2.5632 C.ar      1 <0>        -0.0987
      4 C4          2.5106    3.5990   -1.6684 C.ar      1 <0>        -0.0575
      5 C5          3.2694    3.7734   -0.5220 C.ar      1 <0>         0.0958
      6 C6          4.3463    2.9326   -0.2666 C.ar      1 <0>        -0.1251
      7 N1          2.9515    4.7977    0.3792 N.pl3     1 <0>        -0.3429
      8 C7          2.7620    6.1025    0.0607 C.2       1 <0>         0.0109
      9 C8          2.4701    6.7965    1.1915 C.2       1 <0>        -0.2056
     10 C9          2.4748    5.9025    2.2606 C.2       1 <0>        -0.1644
     11 C10         2.7722    4.6474    1.7413 C.2       1 <0>         0.0136
     12 C11         2.8744    3.4496    2.4669 C.2       1 <0>         0.0741
     13 C12         1.8947    2.4718    2.3360 C.2       1 <0>        -0.2473
     14 C13         1.8801    1.2777    3.1990 C.2       1 <0>         0.5330
     15 O1          2.7305    1.1144    4.0540 O.3       1 <0>        -0.5252
     16 N2          0.8991    0.3702    3.0155 N.2       1 <0>        -0.6261
     17 C14        -0.0436    0.5378    2.0774 C.2       1 <0>         0.5511
     18 S1         -1.2504   -0.6658    1.9165 S.2       1 <0>        -0.6812
     19 N3         -0.0916    1.5983    1.2590 N.am      1 <0>        -0.5059
     20 C15         0.8225    2.5876    1.3327 C.2       1 <0>         0.5495
     21 O2          0.7652    3.5480    0.5875 O.2       1 <0>        -0.4669
     22 C16        -1.1185    1.6844    0.3094 C.ar      1 <0>         0.1759
     23 C17        -2.1823    2.5534    0.5119 C.ar      1 <0>        -0.0868
     24 C18        -3.1909    2.6401   -0.4277 C.ar      1 <0>        -0.1047
     25 C19        -3.1485    1.8549   -1.5651 C.ar      1 <0>        -0.0996
     26 C20        -2.0931    0.9836   -1.7687 C.ar      1 <0>        -0.0184
     27 C21        -1.0771    0.8962   -0.8337 C.ar      1 <0>         0.0182
     28 Cl1         0.2470   -0.1972   -1.0883 Cl        1 <0>        -0.0254
     29 Cl2        -2.0434    0.0001   -3.1984 Cl        1 <0>        -0.0485
     30 C22         2.0279    2.3847   -3.7877 C.2       1 <0>         0.4968
     31 O3          1.0507    3.0778   -3.9881 O.co2     1 <0>        -0.6231
     32 O4          2.3786    1.4403   -4.6819 O.co2     1 <0>        -0.7535
     33 H1          5.5029    1.2708   -0.9487 H         1 <0>         0.1230
     34 H2          4.1735    0.9525   -2.9920 H         1 <0>         0.1330
     35 H3          1.6733    4.2511   -1.8684 H         1 <0>         0.1324
     36 H4          4.9361    3.0702    0.6276 H         1 <0>         0.1174
     37 H5          2.8320    6.5221   -0.9319 H         1 <0>         0.1575
     38 H6          2.2691    7.8560    1.2515 H         1 <0>         0.1333
     39 H7          2.2797    6.1390    3.2961 H         1 <0>         0.1353
     40 H8          3.7296    3.2849    3.1389 H         1 <0>         0.1561
     41 H9         -2.2189    3.1643    1.4018 H         1 <0>         0.1282
     42 H10        -4.0159    3.3194   -0.2719 H         1 <0>         0.1358
     43 H11        -3.9409    1.9217   -2.2959 H         1 <0>         0.1378
@<TRIPOS>BOND
     1    1    6 ar
     2    1    2 ar
     3    1   33 1
     4    2    3 ar
     5    2   34 1
     6    3    4 ar
     7    3   30 1
     8    4    5 ar
     9    4   35 1
    10    5    6 ar
    11    5    7 1
    12    6   36 1
    13    7   11 1
    14    7    8 1
    15    8    9 2
    16    8   37 1
    17    9   10 1
    18    9   38 1
    19   10   11 2
    20   10   39 1
    21   11   12 1
    22   12   13 2
    23   12   40 1
    24   13   20 1
    25   13   14 1
    26   14   15 1
    27   14   16 2
    28   16   17 1
    29   17   18 2
    30   17   19 1
    31   19   20 am
    32   19   22 1
    33   20   21 2
    34   22   27 ar
    35   22   23 ar
    36   23   24 ar
    37   23   41 1
    38   24   25 ar
    39   24   42 1
    40   25   26 ar
    41   25   43 1
    42   26   27 ar
    43   26   29 1
    44   27   28 1
    45   30   31 2
    46   30   32 1
@<TRIPOS>MOLECULE
ZINC37675902
   27    28     0     0     0
SMALL
USER_CHARGES

@<TRIPOS>ATOM
      1 C1         -0.0184    1.5028    0.0103 C.3       1 <0>        -0.0748
      2 C2          0.0021   -0.0041    0.0020 C.2       1 <0>         0.1682
      3 C3          0.0058   -0.7232   -1.1965 C.2       1 <0>        -0.3664
      4 C4          0.0255   -2.1133   -1.0306 C.2       1 <0>         0.2452
      5 S1          0.0362   -2.2889    0.6380 S.3       1 <0>         0.0359
      6 N1          0.0223   -0.6855    1.1103 N.2       1 <0>        -0.5459
      7 N2          0.0340   -3.0946   -1.9984 N.2       1 <0>        -0.9361
      8 S2          0.0578   -4.6910   -1.5587 S.o2      1 <0>         2.5582
      9 O1          1.3096   -4.9194   -0.9261 O.2       1 <0>        -1.0184
     10 O2         -1.1809   -4.9531   -0.9136 O.2       1 <0>        -0.9973
     11 C5          0.0633   -5.6402   -3.0432 C.ar      1 <0>        -0.5732
     12 C6          1.1552   -6.4285   -3.3555 C.ar      1 <0>        -0.0204
     13 C7          1.1598   -7.1735   -4.5195 C.ar      1 <0>        -0.1076
     14 C8          0.0716   -7.1308   -5.3727 C.ar      1 <0>        -0.0522
     15 C9         -1.0208   -6.3424   -5.0608 C.ar      1 <0>        -0.0918
     16 C10        -1.0272   -5.6009   -3.8930 C.ar      1 <0>         0.0135
     17 Br1        -2.5240   -4.5286   -3.4619 Br        1 <0>         0.0114
     18 Br2         0.0784   -8.1498   -6.9657 Br        1 <0>        -0.0518
     19 C11        -0.0099   -0.0798   -2.5090 C.2       1 <0>         0.5626
     20 O3         -0.0273    1.1420   -2.5919 O.co2     1 <0>        -0.7305
     21 O4         -0.0057   -0.7627   -3.5257 O.co2     1 <0>        -0.6760
     22 H1          1.0042    1.8801    0.0026 H         1 <0>         0.0559
     23 H2         -0.5455    1.8639   -0.8728 H         1 <0>         0.1136
     24 H3         -0.5286    1.8543    0.9071 H         1 <0>         0.0363
     25 H4          2.0050   -6.4618   -2.6898 H         1 <0>         0.1556
     26 H5          2.0132   -7.7889   -4.7632 H         1 <0>         0.1411
     27 H6         -1.8705   -6.3088   -5.7266 H         1 <0>         0.1449
@<TRIPOS>BOND
     1    1    2 1
     2    1   22 1
     3    1   23 1
     4    1   24 1
     5    2    6 2
     6    2    3 1
     7    3    4 2
     8    3   19 1
     9    4    5 1
    10    4    7 1
    11    5    6 1
    12    7    8 1
    13    8    9 2
    14    8   10 2
    15    8   11 1
    16   11   16 ar
    17   11   12 ar
    18   12   13 ar
    19   12   25 1
    20   13   14 ar
    21   13   26 1
    22   14   15 ar
    23   14   18 1
    24   15   16 ar
    25   15   27 1
    26   16   17 1
    27   19   20 2
    28   19   21 1
@<TRIPOS>MOLECULE
ZINC40567601
   45    47     0     0     0
SMALL
USER_CHARGES

@<TRIPOS>ATOM
      1 C1         -0.0225    1.8097    0.0120 C.3       1 <0>        -0.1231
      2 S1          0.0021   -0.0041    0.0020 S.3       1 <0>        -0.2598
      3 C2          0.9025   -0.4391    1.5155 C.3       1 <0>        -0.0753
      4 C3          0.9973   -1.9616    1.6327 C.3       1 <0>        -0.1158
      5 C4          1.7568   -2.3285    2.9093 C.3       1 <0>         0.0519
      6 H1          2.7268   -1.8313    2.9106 H         1 <0>         0.1077
      7 C5          1.9574   -3.8211    2.9630 C.2       1 <0>         0.5031
      8 O1          2.7260   -4.3613    2.1859 O.co2     1 <0>        -0.6819
      9 O2          1.3510   -4.4886    3.7836 O.co2     1 <0>        -0.6538
     10 N1          0.9853   -1.8971    4.0776 N.am      1 <0>        -0.4934
     11 C6          1.5168   -1.0248    4.9173 C.2       1 <0>         0.5432
     12 O3          2.6332   -0.5698    4.7437 O.2       1 <0>        -0.4884
     13 C7          0.6932   -0.6301    6.0719 C.2       1 <0>        -0.2217
     14 C8          0.9763    0.2383    7.0862 C.2       1 <0>         0.0711
     15 C9          0.0255    0.4694    8.1035 C.2       1 <0>        -0.0298
     16 C10         0.1791    1.3232    9.1814 C.2       1 <0>        -0.1391
     17 C11        -0.9981    1.2426    9.9298 C.2       1 <0>        -0.2192
     18 C12        -1.8197    0.3554    9.2939 C.2       1 <0>         0.0957
     19 O4         -1.1953   -0.0994    8.1924 O.3       1 <0>        -0.1436
     20 C13        -3.1719   -0.0349    9.7385 C.ar      1 <0>        -0.0640
     21 C14        -3.7155    0.5215   10.9006 C.ar      1 <0>        -0.0974
     22 C15        -4.9802    0.1580   11.3177 C.ar      1 <0>        -0.1422
     23 C16        -5.7176   -0.7568   10.5924 C.ar      1 <0>        -0.0694
     24 C17        -5.1874   -1.3216    9.4285 C.ar      1 <0>        -0.1326
     25 C18        -3.9127   -0.9549    8.9978 C.ar      1 <0>        -0.0510
     26 C19        -5.9767   -2.2994    8.6550 C.2       1 <0>         0.5177
     27 O5         -7.0960   -2.6167    9.0317 O.co2     1 <0>        -0.6906
     28 O6         -5.5115   -2.7925    7.6372 O.co2     1 <0>        -0.6708
     29 S2         -0.7798   -1.6000    5.7803 S.3       1 <0>         0.0601
     30 C20        -0.2537   -2.3943    4.2700 C.2       1 <0>         0.2703
     31 S3         -1.1124   -3.5157    3.3026 S.2       1 <0>        -0.2466
     32 H2          1.0001    2.1870    0.0043 H         1 <0>         0.0717
     33 H3         -0.5497    2.1708   -0.8711 H         1 <0>         0.0980
     34 H4         -0.5327    2.1613    0.9088 H         1 <0>         0.0730
     35 H5          1.9057   -0.0145    1.4762 H         1 <0>         0.0784
     36 H6          0.3729   -0.0403    2.3807 H         1 <0>         0.0670
     37 H7         -0.0059   -2.3862    1.6721 H         1 <0>         0.1084
     38 H8          1.5269   -2.3604    0.7675 H         1 <0>         0.0963
     39 H9          1.9279    0.7486    7.1104 H         1 <0>         0.1754
     40 H10         1.0423    1.9338    9.4019 H         1 <0>         0.1580
     41 H11        -1.2173    1.7804   10.8403 H         1 <0>         0.1547
     42 H12        -3.1443    1.2371   11.4734 H         1 <0>         0.1195
     43 H13        -5.3948    0.5911   12.2160 H         1 <0>         0.1208
     44 H14        -6.7061   -1.0370   10.9252 H         1 <0>         0.1299
     45 H15        -3.4996   -1.3848    8.0973 H         1 <0>         0.1379
@<TRIPOS>BOND
     1    1    2 1
     2    1   32 1
     3    1   33 1
     4    1   34 1
     5    2    3 1
     6    3    4 1
     7    3   35 1
     8    3   36 1
     9    4    5 1
    10    4   37 1
    11    4   38 1
    12    5    6 1
    13    5    7 1
    14    5   10 1
    15    7    8 2
    16    7    9 1
    17   10   30 1
    18   10   11 am
    19   11   12 2
    20   11   13 1
    21   13   14 2
    22   13   29 1
    23   14   15 1
    24   14   39 1
    25   15   19 1
    26   15   16 2
    27   16   17 1
    28   16   40 1
    29   17   18 2
    30   17   41 1
    31   18   19 1
    32   18   20 1
    33   20   25 ar
    34   20   21 ar
    35   21   22 ar
    36   21   42 1
    37   22   23 ar
    38   22   43 1
    39   23   24 ar
    40   23   44 1
    41   24   25 ar
    42   24   26 1
    43   25   45 1
    44   26   27 2
    45   26   28 1
    46   29   30 1
    47   30   31 2
@<TRIPOS>MOLECULE
ZINC13948173
   33    35     0     0     0
SMALL
USER_CHARGES

@<TRIPOS>ATOM
      1 C1         -0.0168    1.3849    0.0097 C.ar      1 <0>        -0.1991
      2 C2          1.1707    2.0901    0.0021 C.ar      1 <0>         0.0135
      3 C3          2.3774    1.4150   -0.0135 C.ar      1 <0>        -0.7159
      4 C4          2.3998    0.0323   -0.0211 C.ar      1 <0>         0.0301
      5 C5          1.2161   -0.6790   -0.0137 C.ar      1 <0>        -0.2828
      6 C6          0.0021   -0.0041    0.0020 C.ar      1 <0>         0.3101
      7 N1         -1.1970   -0.7204    0.0101 N.2       1 <0>        -1.0804
      8 S1         -1.1724   -2.3762    0.0010 S.o2      1 <0>         2.6191
      9 O1         -0.6279   -2.7674   -1.2520 O.2       1 <0>        -1.0138
     10 O2         -0.6032   -2.7807    1.2386 O.2       1 <0>        -1.0141
     11 C7         -2.8476   -2.9222    0.0147 C.2       1 <0>        -0.6457
     12 C8         -3.6675   -3.1862   -1.0315 C.2       1 <0>        -0.0527
     13 C9         -4.9600   -3.6082   -0.7808 C.2       1 <0>        -0.1288
     14 C10        -5.3687   -3.7453    0.5052 C.2       1 <0>        -0.1812
     15 S2         -3.9023   -3.2785    1.4103 S.3       1 <0>         0.2108
     16 Br1        -7.0522   -4.2954    1.1676 Br        1 <0>         0.0300
     17 S3          3.8900    2.3186   -0.0243 S.o2      1 <0>         2.6535
     18 O3          4.8717    1.4606   -0.5894 O.2       1 <0>        -1.0259
     19 O4          3.5945    3.5988   -0.5657 O.2       1 <0>        -1.0257
     20 N2          4.3264    2.5618    1.5546 N.2       1 <0>        -1.0293
     21 C11         5.4898    3.2535    1.8535 C.2       1 <0>         0.4118
     22 N3          6.3592    3.7888    1.0231 N.2       1 <0>        -0.6728
     23 C12         7.4290    4.4222    1.4709 C.2       1 <0>         0.1072
     24 C13         7.5856    4.4930    2.8146 C.2       1 <0>        -0.3650
     25 S4          6.1299    3.6190    3.3665 S.3       1 <0>        -0.0116
     26 H1         -0.9589    1.9127    0.0260 H         1 <0>         0.1173
     27 H2          1.1567    3.1700    0.0080 H         1 <0>         0.1216
     28 H3          3.3440   -0.4918   -0.0333 H         1 <0>         0.1188
     29 H4          1.2342   -1.7588   -0.0200 H         1 <0>         0.1004
     30 H5         -3.3167   -3.0684   -2.0461 H         1 <0>         0.1529
     31 H6         -5.6340   -3.8250   -1.5964 H         1 <0>         0.1434
     32 H7          8.1469    4.8637    0.7955 H         1 <0>         0.1399
     33 H8          8.3725    4.9543    3.3928 H         1 <0>         0.1644
@<TRIPOS>BOND
     1    1    6 ar
     2    1    2 ar
     3    1   26 1
     4    2    3 ar
     5    2   27 1
     6    3    4 ar
     7    3   17 1
     8    4    5 ar
     9    4   28 1
    10    5    6 ar
    11    5   29 1
    12    6    7 1
    13    7    8 1
    14    8    9 2
    15    8   10 2
    16    8   11 1
    17   11   15 1
    18   11   12 2
    19   12   13 1
    20   12   30 1
    21   13   14 2
    22   13   31 1
    23   14   15 1
    24   14   16 1
    25   17   18 2
    26   17   19 2
    27   17   20 1
    28   20   21 1
    29   21   25 1
    30   21   22 2
    31   22   23 1
    32   23   24 2
    33   23   32 1
    34   24   25 1
    35   24   33 1
@<TRIPOS>MOLECULE
ZINC13340966
   36    37     0     0     0
SMALL
USER_CHARGES
5-[(2-methyl-5-nitro-phenyl)sulfonylamino]benzene-1,3-dicarboxylic acid
@<TRIPOS>ATOM
      1 C1          0.4974    1.3334   -5.3464 C.3       1 <0>        -0.1483
      2 C2          1.4210    1.7556   -4.2330 C.ar      1 <0>         0.0709
      3 C3          2.5139    2.5565   -4.5077 C.ar      1 <0>        -0.1412
      4 C4          3.3608    2.9441   -3.4865 C.ar      1 <0>        -0.0018
      5 C5          3.1149    2.5309   -2.1902 C.ar      1 <0>        -0.0716
      6 C6          2.0223    1.7302   -1.9156 C.ar      1 <0>         0.0583
      7 C7          1.1722    1.3468   -2.9364 C.ar      1 <0>        -0.6771
      8 S1         -0.2247    0.3320   -2.5852 S.o2      1 <0>         2.6902
      9 O1         -0.1964   -0.7363   -3.5218 O.2       1 <0>        -0.9585
     10 O2         -0.2257    0.1142   -1.1810 O.2       1 <0>        -0.9285
     11 N1         -1.5769    1.2250   -2.9266 N.pl3     1 <0>        -1.0400
     12 C8         -1.8252    2.4110   -2.2303 C.ar      1 <0>         0.0741
     13 C9         -1.7008    2.4416   -0.8488 C.ar      1 <0>        -0.1104
     14 C10        -1.9427    3.6264   -0.1505 C.ar      1 <0>        -0.1186
     15 C11        -2.3203    4.7761   -0.8418 C.ar      1 <0>        -0.0267
     16 C12        -2.4498    4.7404   -2.2290 C.ar      1 <0>        -0.1267
     17 C13        -2.2009    3.5538   -2.9215 C.ar      1 <0>        -0.0872
     18 C14        -2.8495    5.9571   -2.9660 C.2       1 <0>         0.4973
     19 O3         -2.9618    5.9254   -4.1751 O.co2     1 <0>        -0.6458
     20 C15        -1.8046    3.6594    1.3203 C.2       1 <0>         0.4943
     21 O4         -1.3872    2.6849    1.9132 O.co2     1 <0>        -0.6331
     22 N2          4.0215    2.9464   -1.0964 N.pl3     1 <0>         0.0312
     23 O5          4.9842    3.6523   -1.3384 O.2       1 <0>        -0.1678
     24 O6          3.8050    2.5824    0.0455 O.3       1 <0>        -0.1426
     25 H1          0.8932    0.4389   -5.8274 H         1 <0>         0.1049
     26 H2         -0.4902    1.1194   -4.9378 H         1 <0>         0.0743
     27 H3          0.4211    2.1364   -6.0795 H         1 <0>         0.0970
     28 H4          2.7058    2.8796   -5.5202 H         1 <0>         0.1560
     29 H5          4.2143    3.5700   -3.7010 H         1 <0>         0.1595
     30 H6          1.8301    1.4077   -0.9030 H         1 <0>         0.1769
     31 H7         -2.1965    0.9249   -3.6098 H         1 <0>         0.4207
     32 H8         -1.4128    1.5490   -0.3133 H         1 <0>         0.1539
     33 H9         -2.5126    5.6925   -0.3036 H         1 <0>         0.1438
     34 H10        -2.3007    3.5255   -3.9966 H         1 <0>         0.1252
     35 O7         -3.0894    7.1015   -2.2971 O.co2     1 <0>        -0.7496
     36 O8         -2.1418    4.7703    2.0036 O.co2     1 <0>        -0.7527
@<TRIPOS>BOND
     1    1    2 1
     2    1   25 1
     3    1   26 1
     4    1   27 1
     5    2    7 ar
     6    2    3 ar
     7    3    4 ar
     8    3   28 1
     9    4    5 ar
    10    4   29 1
    11    5    6 ar
    12    5   22 1
    13    6    7 ar
    14    6   30 1
    15    7    8 1
    16    8    9 2
    17    8   10 2
    18    8   11 1
    19   11   12 1
    20   11   31 1
    21   12   17 ar
    22   12   13 ar
    23   13   14 ar
    24   13   32 1
    25   14   15 ar
    26   14   20 1
    27   15   16 ar
    28   15   33 1
    29   16   17 ar
    30   16   18 1
    31   17   34 1
    32   18   19 2
    33   18   35 1
    34   20   21 2
    35   20   36 1
    36   22   23 2
    37   22   24 1
@<TRIPOS>MOLECULE
ZINC15836149
   42    44     0     0     0
SMALL
USER_CHARGES
(5E)-1-(3-chlorophenyl)-5-[(3-ethoxy-4-hydroxy-5-nitro-phenyl)methylene]hexahydropyrimidine-2,4,6-trione
@<TRIPOS>ATOM
      1 C1         11.8513    3.1015   -2.8158 C.3       1 <0>        -0.1473
      2 C2         10.5296    2.6628   -2.1820 C.3       1 <0>         0.0506
      3 O1         10.6571    1.3270   -1.6908 O.3       1 <0>        -0.2986
      4 C3          9.5638    0.7818   -1.0934 C.ar      1 <0>        -0.0160
      5 C4          8.4007    1.5150   -0.9842 C.ar      1 <0>        -0.1013
      6 C5          7.2749    0.9489   -0.3667 C.ar      1 <0>        -0.2053
      7 C6          7.3420   -0.3576    0.1408 C.ar      1 <0>         0.0941
      8 C7          8.5055   -1.0819    0.0213 C.ar      1 <0>        -0.1905
      9 C8          9.6196   -0.5193   -0.5908 C.ar      1 <0>         0.3283
     10 O2         10.7658   -1.2378   -0.7005 O.3       1 <0>        -0.6242
     11 N1          8.5734   -2.4620    0.5520 N.pl3     1 <0>         0.0763
     12 O3          7.5983   -2.9567    1.0886 O.2       1 <0>        -0.2545
     13 O4          9.6043   -3.1029    0.4520 O.3       1 <0>        -0.1787
     14 C9          6.0378    1.7201   -0.2472 C.2       1 <0>         0.0967
     15 C10         4.8257    1.1347   -0.5597 C.2       1 <0>        -0.3146
     16 C11         4.7537   -0.1860   -1.2158 C.2       1 <0>         0.5327
     17 O5          5.7653   -0.7982   -1.5008 O.3       1 <0>        -0.5294
     18 N2          3.5349   -0.6947   -1.4909 N.2       1 <0>        -0.7032
     19 C12         2.4122   -0.0329   -1.1781 C.2       1 <0>         0.6603
     20 O6          1.3460   -0.5497   -1.4489 O.2       1 <0>        -0.5928
     21 N3          2.4016    1.1702   -0.5876 N.am      1 <0>        -0.5510
     22 C13         3.5454    1.8021   -0.2528 C.2       1 <0>         0.5731
     23 O7          3.5224    2.8921    0.2867 O.2       1 <0>        -0.5393
     24 C14         1.1734    1.7835   -0.3060 C.ar      1 <0>         0.1798
     25 C15         0.7757    1.9718    1.0111 C.ar      1 <0>        -0.1016
     26 C16        -0.4353    2.5761    1.2861 C.ar      1 <0>        -0.1027
     27 C17        -1.2523    2.9937    0.2516 C.ar      1 <0>        -0.1226
     28 C18        -0.8567    2.8128   -1.0620 C.ar      1 <0>        -0.0267
     29 C19         0.3520    2.2033   -1.3431 C.ar      1 <0>        -0.0889
     30 Cl1        -1.8819    3.3451   -2.3579 Cl        1 <0>        -0.0826
     31 H1         11.7531    4.1298   -3.1939 H         1 <0>         0.0673
     32 H2         12.1005    2.4270   -3.6482 H         1 <0>         0.0628
     33 H3         12.6505    3.0631   -2.0609 H         1 <0>         0.0619
     34 H4         10.2804    3.3373   -1.3496 H         1 <0>         0.0502
     35 H5          9.7304    2.7012   -2.9368 H         1 <0>         0.0513
     36 H6          8.3567    2.5218   -1.3725 H         1 <0>         0.1152
     37 H7          6.4795   -0.7959    0.6208 H         1 <0>         0.1241
     38 H8          6.0723    2.7661    0.0914 H         1 <0>         0.1259
     39 H9          1.4128    1.6457    1.8198 H         1 <0>         0.1272
     40 H10        -0.7445    2.7229    2.3105 H         1 <0>         0.1320
     41 H11        -2.1989    3.4659    0.4693 H         1 <0>         0.1293
     42 H12         0.6588    2.0581   -2.3684 H         1 <0>         0.1327
@<TRIPOS>BOND
     1    1    2 1
     2    1   31 1
     3    1   32 1
     4    1   33 1
     5    2    3 1
     6    2   34 1
     7    2   35 1
     8    3    4 1
     9    4    9 ar
    10    4    5 ar
    11    5    6 ar
    12    5   36 1
    13    6    7 ar
    14    6   14 1
    15    7    8 ar
    16    7   37 1
    17    8    9 ar
    18    8   11 1
    19    9   10 1
    20   11   12 2
    21   11   13 1
    22   14   15 2
    23   14   38 1
    24   15   22 1
    25   15   16 1
    26   16   17 1
    27   16   18 2
    28   18   19 1
    29   19   20 2
    30   19   21 am
    31   21   22 am
    32   21   24 1
    33   22   23 2
    34   24   29 ar
    35   24   25 ar
    36   25   26 ar
    37   25   39 1
    38   26   27 ar
    39   26   40 1
    40   27   28 ar
    41   27   41 1
    42   28   29 ar
    43   28   30 1
    44   29   42 1
@<TRIPOS>MOLECULE
ZINC13247423
   38    39     0     0     0
SMALL
USER_CHARGES

@<TRIPOS>ATOM
      1 C1          0.0797    1.3799    0.0414 C.3       1 <0>        -0.1136
      2 C2          0.0715   -0.1253   -0.0321 C.2       1 <0>         0.4805
      3 O1          1.2353   -0.8031   -0.1127 O.3       1 <0>        -0.7383
      4 N1         -1.0486   -0.7658   -0.0180 N.2       1 <0>        -1.0562
      5 S1         -1.0577   -2.4198   -0.0987 S.o2      1 <0>         2.6463
      6 O2         -0.5600   -2.7664   -1.3838 O.2       1 <0>        -1.0094
      7 O3         -0.4590   -2.8883    1.1018 O.2       1 <0>        -1.0105
      8 C3         -2.7423   -2.9343   -0.0555 C.ar      1 <0>        -0.6368
      9 C4         -3.3549   -3.1890    1.1578 C.ar      1 <0>        -0.0048
     10 C5         -4.6752   -3.5924    1.1954 C.ar      1 <0>        -0.1521
     11 C6         -5.3878   -3.7423    0.0125 C.ar      1 <0>         0.1812
     12 C7         -4.7694   -3.4857   -1.2046 C.ar      1 <0>        -0.1758
     13 C8         -3.4505   -3.0771   -1.2346 C.ar      1 <0>         0.0001
     14 N2         -6.7231   -4.1506    0.0467 N.pl3     1 <0>        -1.0592
     15 S2         -7.8546   -3.3596   -0.8679 S.o2      1 <0>         2.6931
     16 O4         -7.3536   -3.3299   -2.1973 O.2       1 <0>        -0.9541
     17 O5         -9.1135   -3.9318   -0.5408 O.2       1 <0>        -0.9625
     18 C9         -7.9004   -1.6890   -0.3096 C.ar      1 <0>        -0.6853
     19 C10        -8.6825   -1.3484    0.7801 C.ar      1 <0>        -0.0392
     20 C11        -8.7237   -0.0427    1.2224 C.ar      1 <0>        -0.1101
     21 C12        -7.9729    0.9370    0.5677 C.ar      1 <0>        -0.0702
     22 C13        -7.1852    0.5857   -0.5315 C.ar      1 <0>        -0.1030
     23 C14        -7.1498   -0.7250   -0.9594 C.ar      1 <0>        -0.0304
     24 C15        -8.0121    2.3361    1.0346 C.2       1 <0>         0.5165
     25 O6         -8.7028    2.6405    1.9967 O.co2     1 <0>        -0.6823
     26 O7         -7.3538    3.1913    0.4594 O.co2     1 <0>        -0.6739
     27 H1          1.1085    1.7392    0.0171 H         1 <0>         0.0619
     28 H2         -0.4678    1.7881   -0.8082 H         1 <0>         0.0733
     29 H3         -0.3956    1.7010    0.9682 H         1 <0>         0.0732
     30 H4         -2.8001   -3.0726    2.0771 H         1 <0>         0.1417
     31 H5         -5.1529   -3.7915    2.1433 H         1 <0>         0.1326
     32 H6         -5.3205   -3.6016   -2.1262 H         1 <0>         0.1593
     33 H7         -2.9704   -2.8732   -2.1803 H         1 <0>         0.1443
     34 H8         -6.9877   -4.8975    0.6063 H         1 <0>         0.4240
     35 H9         -9.2623   -2.1068    1.2851 H         1 <0>         0.1286
     36 H10        -9.3350    0.2219    2.0725 H         1 <0>         0.1354
     37 H11        -6.6023    1.3378   -1.0423 H         1 <0>         0.1397
     38 H12        -6.5380   -0.9989   -1.8062 H         1 <0>         0.1359
@<TRIPOS>BOND
     1    1    2 1
     2    1   27 1
     3    1   28 1
     4    1   29 1
     5    2    3 1
     6    2    4 2
     7    4    5 1
     8    5    6 2
     9    5    7 2
    10    5    8 1
    11    8   13 ar
    12    8    9 ar
    13    9   10 ar
    14    9   30 1
    15   10   11 ar
    16   10   31 1
    17   11   12 ar
    18   11   14 1
    19   12   13 ar
    20   12   32 1
    21   13   33 1
    22   14   15 1
    23   14   34 1
    24   15   16 2
    25   15   17 2
    26   15   18 1
    27   18   23 ar
    28   18   19 ar
    29   19   20 ar
    30   19   35 1
    31   20   21 ar
    32   20   36 1
    33   21   22 ar
    34   21   24 1
    35   22   23 ar
    36   22   37 1
    37   23   38 1
    38   24   25 2
    39   24   26 1
@<TRIPOS>MOLECULE
ZINC13093036
   51    52     0     0     0
SMALL
USER_CHARGES

@<TRIPOS>ATOM
      1 C1         -0.0187    1.5258    0.0104 C.3       1 <0>        -0.1582
      2 C2          0.0021   -0.0041    0.0020 C.3       1 <0>        -0.0810
      3 H1          0.5123   -0.3556   -0.8948 H         1 <0>         0.0731
      4 C3         -1.4333   -0.5336    0.0129 C.3       1 <0>        -0.1164
      5 C4         -2.1494   -0.0402    1.2717 C.3       1 <0>        -0.1187
      6 C5         -1.4095   -0.5471    2.5112 C.3       1 <0>        -0.1326
      7 C6          0.0259   -0.0175    2.5003 C.3       1 <0>         0.1651
      8 H2          0.0111    1.0724    2.5063 H         1 <0>         0.0940
      9 C7          0.7421   -0.5109    1.2415 C.3       1 <0>        -0.0928
     10 H3          0.7568   -1.6008    1.2356 H         1 <0>         0.0755
     11 C8          2.1775    0.0187    1.2307 C.3       1 <0>        -0.1507
     12 N1          0.7345   -0.5028    3.6872 N.am      1 <0>        -0.7359
     13 C9          0.6336    0.1663    4.8528 C.2       1 <0>         0.6965
     14 O1         -0.0451    1.1723    4.9193 O.2       1 <0>        -0.5293
     15 N2          1.2855   -0.2802    5.9447 N.am      1 <0>        -0.6888
     16 C10         1.1847    0.3889    7.1103 C.2       1 <0>         0.5393
     17 O2          0.5076    1.3924    7.1766 O.2       1 <0>        -0.4487
     18 C11         1.9135   -0.1103    8.3312 C.3       1 <0>        -0.1450
     19 S1          1.5806    0.9969    9.7290 S.3       1 <0>         0.0300
     20 C12         2.4904    0.2875   11.0608 C.ar      1 <0>         0.2496
     21 N3          2.4624    0.8650   12.2558 N.ar      1 <0>        -0.5760
     22 C13         3.1503    0.3256   13.2563 C.ar      1 <0>         0.4213
     23 O3          3.1400    0.8930   14.4869 O.3       1 <0>        -0.6585
     24 C14         3.8834   -0.8371   13.0149 C.ar      1 <0>        -0.0386
     25 N4          3.8730   -1.3659   11.8057 N.ar      1 <0>        -0.2059
     26 N5          3.1917   -0.8216   10.8592 N.ar      1 <0>        -0.4106
     27 C15         4.6778   -1.4810   14.1218 C.3       1 <0>        -0.0105
     28 C16         3.7997   -2.4966   14.8556 C.3       1 <0>        -0.1654
     29 C17         4.5942   -3.1405   15.9625 C.2       1 <0>         0.4976
     30 O4          5.7551   -2.8171   16.1474 O.co2     1 <0>        -0.7015
     31 O5          4.0761   -3.9849   16.6732 O.co2     1 <0>        -0.7190
     32 H4          1.0039    1.9031    0.0027 H         1 <0>         0.0583
     33 H5         -0.5459    1.8868   -0.8726 H         1 <0>         0.0535
     34 H6         -0.5289    1.8773    0.9072 H         1 <0>         0.0637
     35 H7         -1.9605   -0.1726   -0.8702 H         1 <0>         0.0626
     36 H8         -1.4185   -1.6235    0.0069 H         1 <0>         0.0620
     37 H9         -2.1642    1.0497    1.2777 H         1 <0>         0.0681
     38 H10        -3.1720   -0.4175    1.2794 H         1 <0>         0.0634
     39 H11        -1.9196   -0.1955    3.4080 H         1 <0>         0.0707
     40 H12        -1.3947   -1.6369    2.5052 H         1 <0>         0.0632
     41 H13         2.1627    1.1086    1.2367 H         1 <0>         0.0604
     42 H14         2.7046   -0.3424    2.1137 H         1 <0>         0.0568
     43 H15         2.6876   -0.3328    0.3339 H         1 <0>         0.0558
     44 H16         1.2762   -1.3057    3.6342 H         1 <0>         0.3967
     45 H17         1.8272   -1.0830    5.8917 H         1 <0>         0.4116
     46 H18         1.5694   -1.1156    8.5740 H         1 <0>         0.1255
     47 H19         2.9849   -0.1313    8.1315 H         1 <0>         0.1251
     48 H20         5.5447   -1.9887   13.6989 H         1 <0>         0.0615
     49 H21         5.0111   -0.7155   14.8226 H         1 <0>         0.0770
     50 H22         2.9328   -1.9889   15.2785 H         1 <0>         0.0563
     51 H23         3.4664   -3.2621   14.1549 H         1 <0>         0.0498
@<TRIPOS>BOND
     1    1    2 1
     2    1   32 1
     3    1   33 1
     4    1   34 1
     5    2    3 1
     6    2    9 1
     7    2    4 1
     8    4    5 1
     9    4   35 1
    10    4   36 1
    11    5    6 1
    12    5   37 1
    13    5   38 1
    14    6    7 1
    15    6   39 1
    16    6   40 1
    17    7    8 1
    18    7    9 1
    19    7   12 1
    20    9   10 1
    21    9   11 1
    22   11   41 1
    23   11   42 1
    24   11   43 1
    25   12   13 am
    26   12   44 1
    27   13   14 2
    28   13   15 am
    29   15   16 am
    30   15   45 1
    31   16   17 2
    32   16   18 1
    33   18   19 1
    34   18   46 1
    35   18   47 1
    36   19   20 1
    37   20   21 ar
    38   20   26 ar
    39   21   22 ar
    40   22   23 1
    41   22   24 ar
    42   24   25 ar
    43   24   27 1
    44   25   26 ar
    45   27   28 1
    46   27   48 1
    47   27   49 1
    48   28   29 1
    49   28   50 1
    50   28   51 1
    51   29   30 2
    52   29   31 1
@<TRIPOS>MOLECULE
ZINC55639179
   38    39     0     0     0
SMALL
USER_CHARGES

@<TRIPOS>ATOM
      1 C1         -0.0187    1.5258    0.0104 C.3       1 <0>        -0.1392
      2 C2          0.0021   -0.0041    0.0020 C.3       1 <0>        -0.6074
      3 S1          0.8511   -0.5891   -1.4904 S.o2      1 <0>         2.5130
      4 O1          0.0816   -0.2798   -2.6443 O.2       1 <0>        -1.0396
      5 O2          2.2316   -0.2574   -1.4300 O.2       1 <0>        -1.0397
      6 N1          0.8085   -2.2411   -1.3844 N.2       1 <0>        -1.1104
      7 C3          1.3860   -3.0224   -2.3924 C.ar      1 <0>         0.2018
      8 C4          1.9995   -2.4120   -3.4783 C.ar      1 <0>        -0.2127
      9 C5          2.5688   -3.1826   -4.4728 C.ar      1 <0>        -0.1269
     10 C6          2.5281   -4.5680   -4.3867 C.ar      1 <0>         0.1820
     11 C7          1.9149   -5.1784   -3.3006 C.ar      1 <0>        -0.2140
     12 C8          1.3503   -4.4077   -2.3035 C.ar      1 <0>        -0.1368
     13 N2          3.1047   -5.3492   -5.3952 N.2       1 <0>        -1.0876
     14 S2          3.0562   -7.0013   -5.2925 S.o2      1 <0>         2.5672
     15 O3          3.8561   -7.3625   -4.1749 O.2       1 <0>        -1.0300
     16 O4          1.6898   -7.3752   -5.4039 O.2       1 <0>        -1.0300
     17 C9          3.8700   -7.6362   -6.7205 C.ar      1 <0>        -0.5528
     18 C10         3.1490   -7.8860   -7.8732 C.ar      1 <0>        -0.0262
     19 C11         3.7875   -8.3841   -8.9935 C.ar      1 <0>        -0.0811
     20 C12         5.1471   -8.6320   -8.9613 C.ar      1 <0>        -0.0283
     21 C13         5.8682   -8.3813   -7.8090 C.ar      1 <0>        -0.0812
     22 C14         5.2305   -7.8792   -6.6900 C.ar      1 <0>        -0.0263
     23 N3          5.8306   -9.1662  -10.1606 N.pl3     1 <0>         0.0380
     24 O5          5.1998   -9.3858  -11.1684 O.2       1 <0>        -0.1665
     25 O6          7.0196   -9.3830  -10.1325 O.3       1 <0>        -0.1662
     26 H1          1.0039    1.9031    0.0027 H         1 <0>         0.0614
     27 H2         -0.5459    1.8868   -0.8726 H         1 <0>         0.0614
     28 H3         -0.5289    1.8773    0.9072 H         1 <0>         0.0601
     29 H4          0.5293   -0.3651    0.8851 H         1 <0>         0.1137
     30 H5         -1.0205   -0.3814    0.0098 H         1 <0>         0.1137
     31 H6          2.0312   -1.3346   -3.5453 H         1 <0>         0.0888
     32 H7          3.0453   -2.7079   -5.3177 H         1 <0>         0.0944
     33 H8          1.8832   -6.2558   -3.2336 H         1 <0>         0.0826
     34 H9          0.8770   -4.8824   -1.4567 H         1 <0>         0.0945
     35 H10         2.0868   -7.6924   -7.8983 H         1 <0>         0.1613
     36 H11         3.2241   -8.5800   -9.8938 H         1 <0>         0.1538
     37 H12         6.9304   -8.5753   -7.7837 H         1 <0>         0.1538
     38 H13         5.7946   -7.6798   -5.7908 H         1 <0>         0.1614
@<TRIPOS>BOND
     1    1    2 1
     2    1   26 1
     3    1   27 1
     4    1   28 1
     5    2    3 1
     6    2   29 1
     7    2   30 1
     8    3    4 2
     9    3    5 2
    10    3    6 1
    11    6    7 1
    12    7   12 ar
    13    7    8 ar
    14    8    9 ar
    15    8   31 1
    16    9   10 ar
    17    9   32 1
    18   10   11 ar
    19   10   13 1
    20   11   12 ar
    21   11   33 1
    22   12   34 1
    23   13   14 1
    24   14   15 2
    25   14   16 2
    26   14   17 1
    27   17   22 ar
    28   17   18 ar
    29   18   19 ar
    30   18   35 1
    31   19   20 ar
    32   19   36 1
    33   20   21 ar
    34   20   23 1
    35   21   22 ar
    36   21   37 1
    37   22   38 1
    38   23   24 2
    39   23   25 1
@<TRIPOS>MOLECULE
ZINC16930397
   42    44     0     0     0
SMALL
USER_CHARGES
3-[(5Z)-5-[[3-(carboxymethyloxy)phenyl]methylene]-4-oxo-2-thioxo-thiazolidin-3-yl]-4-methyl-benzoic acid
@<TRIPOS>ATOM
      1 C1         -6.7023   -8.8032    2.0971 C.3       1 <0>        -0.1112
      2 C2         -7.2643   -9.1382    0.7396 C.ar      1 <0>        -0.0578
      3 C3         -8.3884   -9.9369    0.6373 C.ar      1 <0>        -0.1308
      4 C4         -8.9056  -10.2527   -0.6021 C.ar      1 <0>        -0.0524
      5 C5         -8.2964   -9.7608   -1.7586 C.ar      1 <0>        -0.1082
      6 C6         -7.1653   -8.9507   -1.6547 C.ar      1 <0>        -0.0451
      7 C7         -6.6541   -8.6396   -0.4046 C.ar      1 <0>         0.0704
      8 N1         -5.5178   -7.8265   -0.2949 N.am      1 <0>        -0.4679
      9 C8         -5.6678   -6.5159   -0.2017 C.2       1 <0>         0.5449
     10 O1         -6.7679   -5.9959   -0.2082 O.2       1 <0>        -0.4489
     11 C9         -4.4303   -5.7150   -0.0887 C.2       1 <0>        -0.2377
     12 C10        -4.2766   -4.3720    0.0194 C.2       1 <0>         0.0808
     13 C11        -2.9335   -3.7781   -0.0482 C.ar      1 <0>        -0.0587
     14 C12        -2.7499   -2.4203    0.2381 C.ar      1 <0>        -0.1300
     15 C13        -1.4882   -1.8681    0.1732 C.ar      1 <0>        -0.0816
     16 C14        -0.4019   -2.6513   -0.1740 C.ar      1 <0>        -0.1915
     17 C15        -0.5727   -3.9995   -0.4601 C.ar      1 <0>         0.1466
     18 C16        -1.8343   -4.5657   -0.4044 C.ar      1 <0>        -0.1265
     19 O2          0.4994   -4.7623   -0.8005 O.3       1 <0>        -0.2805
     20 C17         1.7709   -4.1118   -0.8441 C.3       1 <0>         0.0161
     21 C18         2.8316   -5.1077   -1.2367 C.2       1 <0>         0.4683
     22 O3          2.5303   -6.2579   -1.4517 O.co2     1 <0>        -0.6068
     23 S1         -3.1921   -7.0033   -0.1415 S.3       1 <0>         0.0959
     24 C19        -4.2967   -8.3986   -0.2864 C.2       1 <0>         0.2545
     25 S2         -3.9010  -10.0607   -0.3945 S.2       1 <0>        -0.3248
     26 C20        -8.8480  -10.0968   -3.0874 C.2       1 <0>         0.4938
     27 O4         -8.3166   -9.6676   -4.0918 O.co2     1 <0>        -0.6264
     28 H1         -7.1670   -7.8893    2.4673 H         1 <0>         0.0688
     29 H2         -6.9083   -9.6210    2.7876 H         1 <0>         0.0740
     30 H3         -5.6250   -8.6568    2.0183 H         1 <0>         0.0546
     31 H4         -8.8606  -10.3184    1.5306 H         1 <0>         0.1271
     32 H5         -9.7815  -10.8799   -0.6780 H         1 <0>         0.1384
     33 H6         -6.6895   -8.5676   -2.5453 H         1 <0>         0.1293
     34 H7         -5.1408   -3.7387    0.1552 H         1 <0>         0.1635
     35 H8         -3.5956   -1.8058    0.5092 H         1 <0>         0.1312
     36 H9         -1.3474   -0.8205    0.3946 H         1 <0>         0.1297
     37 H10         0.5836   -2.2122   -0.2225 H         1 <0>         0.1360
     38 H11        -1.9688   -5.6130   -0.6313 H         1 <0>         0.1371
     39 H12         2.0033   -3.7020    0.1389 H         1 <0>         0.0682
     40 H13         1.7413   -3.3049   -1.5763 H         1 <0>         0.0681
     41 O5          4.1118   -4.7183   -1.3421 O.co2     1 <0>        -0.7575
     42 O6         -9.9402  -10.8793   -3.1850 O.co2     1 <0>        -0.7530
@<TRIPOS>BOND
     1    1    2 1
     2    1   28 1
     3    1   29 1
     4    1   30 1
     5    2    7 ar
     6    2    3 ar
     7    3    4 ar
     8    3   31 1
     9    4    5 ar
    10    4   32 1
    11    5    6 ar
    12    5   26 1
    13    6    7 ar
    14    6   33 1
    15    7    8 1
    16    8   24 1
    17    8    9 am
    18    9   10 2
    19    9   11 1
    20   11   12 2
    21   11   23 1
    22   12   13 1
    23   12   34 1
    24   13   18 ar
    25   13   14 ar
    26   14   15 ar
    27   14   35 1
    28   15   16 ar
    29   15   36 1
    30   16   17 ar
    31   16   37 1
    32   17   18 ar
    33   17   19 1
    34   18   38 1
    35   19   20 1
    36   20   21 1
    37   20   39 1
    38   20   40 1
    39   21   22 2
    40   21   41 1
    41   23   24 1
    42   24   25 2
    43   26   27 2
    44   26   42 1
@<TRIPOS>MOLECULE
ZINC37425392
   21    22     0     0     0
SMALL
USER_CHARGES

@<TRIPOS>ATOM
      1 C1         -0.0168    1.3859    0.0097 C.2       1 <0>        -0.0702
      2 C2          1.2106    1.9981    0.0012 C.2       1 <0>        -0.6415
      3 C3          2.3317    1.2301   -0.0136 C.2       1 <0>        -0.1701
      4 S1          1.7515   -0.3465   -0.0165 S.3       1 <0>         0.2603
      5 C4          0.0021   -0.0041    0.0020 C.2       1 <0>        -0.1872
      6 C5         -1.0853   -0.9117    0.0079 C.2       1 <0>         0.5557
      7 O1         -2.2354   -0.4898    0.0216 O.co2     1 <0>        -0.6671
      8 O2         -0.8757   -2.1188   -0.0006 O.co2     1 <0>        -0.6855
      9 Br1         4.1332    1.8049   -0.0283 Br        1 <0>         0.0401
     10 S2          1.3320    3.7558    0.0089 S.o2      1 <0>         2.6527
     11 O3          2.2441    4.1044   -1.0235 O.2       1 <0>        -0.9964
     12 O4          0.0021    4.2547    0.0510 O.2       1 <0>        -1.0059
     13 N1          2.0462    4.1910    1.4382 N.2       1 <0>        -1.0102
     14 C6          2.2715    5.5296    1.7213 C.2       1 <0>         0.4148
     15 N2          1.9826    6.5808    0.9848 N.2       1 <0>        -0.6619
     16 C7          2.2648    7.8036    1.4006 C.2       1 <0>         0.1620
     17 C8          2.8611    7.9196    2.6120 C.2       1 <0>        -0.3452
     18 S3          2.9744    6.2041    3.0936 S.3       1 <0>         0.0628
     19 Br2         3.4140    9.4716    3.5402 Br        1 <0>        -0.0160
     20 H1         -0.9389    1.9479    0.0258 H         1 <0>         0.1593
     21 H2          2.0310    8.6712    0.8015 H         1 <0>         0.1497
@<TRIPOS>BOND
     1    1    5 2
     2    1    2 1
     3    1   20 1
     4    2    3 2
     5    2   10 1
     6    3    4 1
     7    3    9 1
     8    4    5 1
     9    5    6 1
    10    6    7 2
    11    6    8 1
    12   10   11 2
    13   10   12 2
    14   10   13 1
    15   13   14 1
    16   14   18 1
    17   14   15 2
    18   15   16 1
    19   16   17 2
    20   16   21 1
    21   17   18 1
    22   17   19 1
@<TRIPOS>MOLECULE
ZINC45860532
   47    51     0     0     0
SMALL
USER_CHARGES

@<TRIPOS>ATOM
      1 C1         -0.2006    1.5626    0.0324 C.ar      1 <0>        -0.0202
      2 C2          0.9408    2.3345    0.0262 C.ar      1 <0>        -0.1476
      3 C3          2.1921    1.7189   -0.0080 C.ar      1 <0>         0.1301
      4 C4          2.2773    0.3186   -0.0358 C.ar      1 <0>        -0.0642
      5 C5          1.1198   -0.4423   -0.0295 C.ar      1 <0>         0.0240
      6 C6         -0.1121    0.1796    0.0049 C.ar      1 <0>        -0.6658
      7 S1         -1.5824   -0.7915    0.0138 S.o2      1 <0>         2.6391
      8 O1         -1.2251   -2.0645    0.5344 O.2       1 <0>        -1.0285
      9 O2         -2.5971    0.0132    0.5987 O.2       1 <0>        -1.0293
     10 N1         -2.0202   -1.0317   -1.5651 N.2       1 <0>        -1.0838
     11 C7         -3.1650   -1.7783   -1.8682 C.ar      1 <0>         0.2598
     12 C8         -3.5277   -1.9838   -3.1891 C.ar      1 <0>        -0.1207
     13 C9         -4.6692   -2.7282   -3.4876 C.ar      1 <0>        -0.0274
     14 C10        -5.4403   -3.2625   -2.4520 C.ar      1 <0>         0.0433
     15 C11        -5.0708   -3.0524   -1.1368 C.ar      1 <0>        -0.1262
     16 C12        -3.9350   -2.3185   -0.8423 C.ar      1 <0>        -0.0224
     17 F1         -3.5757   -2.1210    0.4449 F         1 <0>        -0.1290
     18 F2         -6.5468   -3.9837   -2.7361 F         1 <0>        -0.1428
     19 C13        -5.0621   -2.9508   -4.8956 C.2       1 <0>         0.2461
     20 N2         -5.4223   -4.0947   -5.4389 N.2       1 <0>        -0.2802
     21 N3         -5.7030   -3.9166   -6.6823 N.2       1 <0>        -0.2984
     22 C14        -5.5435   -2.6626   -6.9990 C.2       1 <0>         0.1664
     23 N4         -5.1270   -2.0091   -5.8811 N.pl3     1 <0>        -0.4630
     24 C15        -4.8000   -0.5875   -5.7737 C.3       1 <0>         0.0995
     25 C16        -5.6123    0.1992   -6.8065 C.3       1 <0>        -0.1384
     26 C17        -4.8376    0.2763   -8.1209 C.3       1 <0>        -0.1237
     27 C18        -4.6013   -1.1203   -8.6873 C.3       1 <0>        -0.1252
     28 C19        -5.7812   -2.0250   -8.3437 C.3       1 <0>        -0.0293
     29 O3          3.5958    0.0179   -0.0653 O.3       1 <0>        -0.2736
     30 C20         4.2890    1.1691   -0.0563 C.2       1 <0>         0.5151
     31 O4          5.6375    1.2607   -0.0797 O.3       1 <0>        -0.6537
     32 N5          3.4708    2.1867   -0.0224 N.2       1 <0>        -0.6140
     33 H1         -1.1699    2.0379    0.0634 H         1 <0>         0.1314
     34 H2          0.8669    3.4118    0.0473 H         1 <0>         0.1218
     35 H3          1.1811   -1.5204   -0.0507 H         1 <0>         0.1302
     36 H4         -2.9286   -1.5685   -3.9859 H         1 <0>         0.1319
     37 H5         -5.6674   -3.4657   -0.3371 H         1 <0>         0.1350
     38 H6         -5.0439   -0.2328   -4.7723 H         1 <0>         0.1048
     39 H7         -3.7360   -0.4438   -5.9618 H         1 <0>         0.0942
     40 H8         -6.5654   -0.3018   -6.9761 H         1 <0>         0.0781
     41 H9         -5.7946    1.2069   -6.4333 H         1 <0>         0.0882
     42 H10        -5.4078    0.8641   -8.8403 H         1 <0>         0.0688
     43 H11        -3.8768    0.7597   -7.9440 H         1 <0>         0.0716
     44 H12        -4.4948   -1.0594   -9.7704 H         1 <0>         0.0765
     45 H13        -3.6909   -1.5372   -8.2566 H         1 <0>         0.0676
     46 H14        -5.8857   -2.8012   -9.1019 H         1 <0>         0.0961
     47 H15        -6.6903   -1.4247   -8.3070 H         1 <0>         0.0876
@<TRIPOS>BOND
     1    1    6 ar
     2    1    2 ar
     3    1   33 1
     4    2    3 ar
     5    2   34 1
     6    3   32 1
     7    3    4 ar
     8    4    5 ar
     9    4   29 1
    10    5    6 ar
    11    5   35 1
    12    6    7 1
    13    7    8 2
    14    7    9 2
    15    7   10 1
    16   10   11 1
    17   11   16 ar
    18   11   12 ar
    19   12   13 ar
    20   12   36 1
    21   13   14 ar
    22   13   19 1
    23   14   15 ar
    24   14   18 1
    25   15   16 ar
    26   15   37 1
    27   16   17 1
    28   19   23 1
    29   19   20 2
    30   20   21 1
    31   21   22 2
    32   22   28 1
    33   22   23 1
    34   23   24 1
    35   24   25 1
    36   24   38 1
    37   24   39 1
    38   25   26 1
    39   25   40 1
    40   25   41 1
    41   26   27 1
    42   26   42 1
    43   26   43 1
    44   27   28 1
    45   27   44 1
    46   27   45 1
    47   28   46 1
    48   28   47 1
    49   29   30 1
    50   30   31 1
    51   30   32 2
@<TRIPOS>MOLECULE
ZINC16909391
   46    48     0     0     0
SMALL
USER_CHARGES

@<TRIPOS>ATOM
      1 C1          3.0707    1.0788    0.2054 C.3       1 <0>        -0.1074
      2 C2          2.2483   -0.1811    0.1207 C.ar      1 <0>        -0.0822
      3 C3          1.8239   -0.6477   -1.1102 C.ar      1 <0>        -0.1714
      4 C4          1.0692   -1.8032   -1.1923 C.ar      1 <0>        -0.1107
      5 C5          0.7361   -2.4954   -0.0444 C.ar      1 <0>        -0.1217
      6 C6          1.1605   -2.0297    1.1933 C.ar      1 <0>         0.1678
      7 C7          1.9239   -0.8716    1.2717 C.ar      1 <0>        -0.1513
      8 N1          0.8252   -2.7278    2.3571 N.2       1 <0>        -0.5768
      9 C8          0.7727   -2.0713    3.5588 C.2       1 <0>         0.4519
     10 N2          0.8795   -0.7724    3.7905 N.2       1 <0>        -0.7128
     11 C9          0.8115   -0.2636    5.0006 C.2       1 <0>         0.5254
     12 O1          0.9110    0.9360    5.2015 O.2       1 <0>        -0.5164
     13 C10         0.6067   -1.2287    6.1083 C.2       1 <0>        -0.1934
     14 C11         0.4977   -1.0100    7.4418 C.2       1 <0>        -0.0057
     15 C12         0.4081    0.3643    7.9564 C.ar      1 <0>        -0.0311
     16 C13        -0.2968    1.3386    7.2403 C.ar      1 <0>        -0.0865
     17 C14        -0.3779    2.6260    7.7271 C.ar      1 <0>        -0.0963
     18 C15         0.2354    2.9590    8.9217 C.ar      1 <0>        -0.1505
     19 C16         0.9378    2.0003    9.6401 C.ar      1 <0>         0.1233
     20 C17         1.0220    0.7026    9.1664 C.ar      1 <0>        -0.1934
     21 O2          1.5379    2.3352   10.8126 O.3       1 <0>        -0.2844
     22 C18         2.3343    1.3306   11.4439 C.3       1 <0>         0.0123
     23 H1          2.8315    0.7295   10.6826 H         1 <0>         0.0666
     24 C19         1.4383    0.4319   12.2985 C.3       1 <0>        -0.1547
     25 C20         3.3693    1.9875   12.3205 C.2       1 <0>         0.5069
     26 O3          3.3629    3.1976   12.4694 O.co2     1 <0>        -0.6748
     27 O4          4.2131    1.3088   12.8808 O.co2     1 <0>        -0.6915
     28 S1          0.5361   -2.7612    5.1891 S.3       1 <0>        -0.1465
     29 C21        -0.0875   -3.7543   -0.1348 C.3       1 <0>        -0.0883
     30 H2          4.1290    0.8273    0.1350 H         1 <0>         0.0588
     31 H3          2.8003    1.7449   -0.6139 H         1 <0>         0.0549
     32 H4          2.8778    1.5755    1.1562 H         1 <0>         0.0651
     33 H5          2.0824   -0.1079   -2.0093 H         1 <0>         0.1033
     34 H6          0.7394   -2.1648   -2.1551 H         1 <0>         0.1071
     35 H7          2.2596   -0.5093    2.2322 H         1 <0>         0.1389
     36 H8          0.4767   -1.8453    8.1261 H         1 <0>         0.1295
     37 H9         -0.7765    1.0823    6.3072 H         1 <0>         0.1241
     38 H10        -0.9217    3.3772    7.1737 H         1 <0>         0.1196
     39 H11         0.1678    3.9694    9.2971 H         1 <0>         0.1227
     40 H12         1.5639   -0.0448    9.7268 H         1 <0>         0.1274
     41 H13         0.6897   -0.0432   11.6645 H         1 <0>         0.0495
     42 H14         2.0458   -0.3344   12.7801 H         1 <0>         0.0697
     43 H15         0.9411    1.0330   13.0599 H         1 <0>         0.0566
     44 H16         0.5738   -4.6141   -0.2425 H         1 <0>         0.0537
     45 H17        -0.6826   -3.8649    0.7717 H         1 <0>         0.0688
     46 H18        -0.7492   -3.6943   -0.9988 H         1 <0>         0.0440
@<TRIPOS>BOND
     1    1    2 1
     2    1   30 1
     3    1   31 1
     4    1   32 1
     5    2    7 ar
     6    2    3 ar
     7    3    4 ar
     8    3   33 1
     9    4    5 ar
    10    4   34 1
    11    5    6 ar
    12    5   29 1
    13    6    7 ar
    14    6    8 1
    15    7   35 1
    16    8    9 1
    17    9   28 1
    18    9   10 2
    19   10   11 1
    20   11   12 2
    21   11   13 1
    22   13   14 2
    23   13   28 1
    24   14   15 1
    25   14   36 1
    26   15   20 ar
    27   15   16 ar
    28   16   17 ar
    29   16   37 1
    30   17   18 ar
    31   17   38 1
    32   18   19 ar
    33   18   39 1
    34   19   20 ar
    35   19   21 1
    36   20   40 1
    37   21   22 1
    38   22   23 1
    39   22   24 1
    40   22   25 1
    41   24   41 1
    42   24   42 1
    43   24   43 1
    44   25   26 2
    45   25   27 1
    46   29   44 1
    47   29   45 1
    48   29   46 1
@<TRIPOS>MOLECULE
ZINC17045618
   42    45     0     0     0
SMALL
USER_CHARGES

@<TRIPOS>ATOM
      1 C1         -0.0879    1.1201    0.6722 C.ar      1 <0>        -0.0822
      2 C2          1.0507    1.8573    0.9318 C.ar      1 <0>        -0.1018
      3 C3          2.2568    1.4949    0.3582 C.ar      1 <0>        -0.0431
      4 C4          2.3253    0.3935   -0.4768 C.ar      1 <0>        -0.1039
      5 C5          1.1894   -0.3470   -0.7395 C.ar      1 <0>        -0.0955
      6 C6         -0.0217    0.0143   -0.1648 C.ar      1 <0>         0.1625
      7 N1         -1.1758   -0.7357   -0.4295 N.am      1 <0>        -0.5483
      8 C7         -1.1951   -2.0573   -0.1508 C.2       1 <0>         0.5684
      9 O1         -0.2233   -2.6121    0.3287 O.2       1 <0>        -0.5222
     10 C8         -2.4278   -2.8055   -0.4444 C.2       1 <0>        -0.2360
     11 C9         -2.5240   -4.1744   -0.1834 C.2       1 <0>         0.0805
     12 C10        -3.7624   -4.8180   -0.2733 C.2       1 <0>         0.0007
     13 C11        -3.9959   -6.0631   -0.8493 C.2       1 <0>        -0.1600
     14 C12        -5.3581   -6.3155   -0.7216 C.2       1 <0>        -0.2221
     15 C13        -5.9137   -5.2273   -0.0769 C.2       1 <0>         0.0862
     16 O2         -4.9392   -4.3418    0.1891 O.3       1 <0>        -0.0951
     17 C14        -7.3389   -5.0672    0.2678 C.ar      1 <0>        -0.0443
     18 C15        -8.2559   -6.0737   -0.0558 C.ar      1 <0>        -0.0912
     19 C16        -9.5891   -5.9266    0.2653 C.ar      1 <0>        -0.1373
     20 C17       -10.0304   -4.7845    0.9086 C.ar      1 <0>         0.0035
     21 C18        -9.1246   -3.7695    1.2385 C.ar      1 <0>        -0.1307
     22 C19        -7.7743   -3.9154    0.9219 C.ar      1 <0>        -0.0367
     23 C20        -9.5961   -2.5518    1.9239 C.2       1 <0>         0.5182
     24 O3         -8.8033   -1.6661    2.2114 O.co2     1 <0>        -0.6784
     25 O4        -10.7799   -2.4277    2.2049 O.co2     1 <0>        -0.6677
     26 Cl1       -11.7109   -4.6092    1.3071 Cl        1 <0>        -0.0509
     27 C21        -3.5180   -2.0825   -1.0037 C.2       1 <0>         0.4826
     28 O5         -4.6773   -2.7103   -1.2957 O.3       1 <0>        -0.5988
     29 N2         -3.3812   -0.7873   -1.2333 N.2       1 <0>        -0.6571
     30 C22        -2.2563   -0.1342   -0.9533 C.2       1 <0>         0.6640
     31 O6         -2.2026    1.0606   -1.1864 O.2       1 <0>        -0.5676
     32 Cl2         3.6862    2.4239    0.6860 Cl        1 <0>        -0.0858
     33 H1         -1.0281    1.4009    1.1234 H         1 <0>         0.1372
     34 H2          0.9998    2.7176    1.5828 H         1 <0>         0.1350
     35 H3          3.2676    0.1128   -0.9236 H         1 <0>         0.1331
     36 H4          1.2431   -1.2061   -1.3917 H         1 <0>         0.1311
     37 H5         -1.6421   -4.7357    0.0878 H         1 <0>         0.1580
     38 H6         -3.2614   -6.7088   -1.3075 H         1 <0>         0.1494
     39 H7         -5.8824   -7.1960   -1.0625 H         1 <0>         0.1473
     40 H8         -7.9186   -6.9680   -0.5587 H         1 <0>         0.1274
     41 H9        -10.2919   -6.7068    0.0129 H         1 <0>         0.1278
     42 H10        -7.0699   -3.1377    1.1778 H         1 <0>         0.1436
@<TRIPOS>BOND
     1    1    6 ar
     2    1    2 ar
     3    1   33 1
     4    2    3 ar
     5    2   34 1
     6    3    4 ar
     7    3   32 1
     8    4    5 ar
     9    4   35 1
    10    5    6 ar
    11    5   36 1
    12    6    7 1
    13    7   30 am
    14    7    8 am
    15    8    9 2
    16    8   10 1
    17   10   11 2
    18   10   27 1
    19   11   12 1
    20   11   37 1
    21   12   16 1
    22   12   13 2
    23   13   14 1
    24   13   38 1
    25   14   15 2
    26   14   39 1
    27   15   16 1
    28   15   17 1
    29   17   22 ar
    30   17   18 ar
    31   18   19 ar
    32   18   40 1
    33   19   20 ar
    34   19   41 1
    35   20   21 ar
    36   20   26 1
    37   21   22 ar
    38   21   23 1
    39   22   42 1
    40   23   24 2
    41   23   25 1
    42   27   28 1
    43   27   29 2
    44   29   30 1
    45   30   31 2
@<TRIPOS>MOLECULE
ZINC66507942
   41    43     0     0     0
SMALL
USER_CHARGES

@<TRIPOS>ATOM
      1 C1          6.8203    0.6611   -5.3889 C.ar      1 <0>        -0.1763
      2 C2          6.0595   -0.4936   -5.3819 C.ar      1 <0>        -0.1068
      3 C3          5.5750   -0.9959   -4.1901 C.ar      1 <0>        -0.1202
      4 C4          5.8530   -0.3401   -2.9977 C.ar      1 <0>         0.2070
      5 C5          6.6178    0.8194   -3.0082 C.ar      1 <0>        -0.1790
      6 C6          7.0989    1.3165   -4.2035 C.ar      1 <0>        -0.1063
      7 N1          5.3636   -0.8456   -1.7894 N.pl3     1 <0>        -0.6829
      8 C7          5.2765   -2.1934   -1.5995 C.2       1 <0>         0.5461
      9 O1          5.7538   -3.0377   -2.5347 O.3       1 <0>        -0.6732
     10 C8          4.6940   -2.6969   -0.4387 C.2       1 <0>        -0.4116
     11 C9          4.1867   -1.7995    0.5553 C.1       1 <0>         0.3220
     12 N2          3.7842   -1.0876    1.3437 N.1       1 <0>        -0.6097
     13 C10         4.6005   -4.1428   -0.2349 C.2       1 <0>         0.4795
     14 O2          3.3882   -4.7390   -0.1648 O.3       1 <0>        -0.7151
     15 C11         5.7479   -4.8975   -0.1144 C.2       1 <0>        -0.5014
     16 C12         5.8216   -6.4084   -0.0453 C.3       1 <0>        -0.0271
     17 C13         7.3291   -6.6955    0.0825 C.3       1 <0>         0.1113
     18 N3          7.9703   -5.3760    0.0763 N.am      1 <0>        -0.5705
     19 C14         7.0548   -4.4072   -0.0400 C.2       1 <0>         0.5652
     20 O3          7.3315   -3.2202   -0.0740 O.2       1 <0>        -0.5628
     21 C15         9.3491   -5.1607    0.1730 C.ar      1 <0>         0.2272
     22 C16         9.8457   -3.8679    0.2771 C.ar      1 <0>        -0.1589
     23 C17        11.2074   -3.6581    0.3724 C.ar      1 <0>        -0.0788
     24 C18        12.0768   -4.7347    0.3639 C.ar      1 <0>        -0.0990
     25 C19        11.5847   -6.0239    0.2604 C.ar      1 <0>        -0.0794
     26 C20        10.2235   -6.2397    0.1710 C.ar      1 <0>        -0.1879
     27 Cl1        13.7880   -4.4674    0.4828 Cl        1 <0>        -0.1091
     28 H1          7.2015    1.0496   -6.3218 H         1 <0>         0.1050
     29 H2          5.8437   -1.0031   -6.3094 H         1 <0>         0.1105
     30 H3          4.9803   -1.8974   -4.1854 H         1 <0>         0.1396
     31 H4          6.8355    1.3319   -2.0828 H         1 <0>         0.1124
     32 H5          7.6934    2.2181   -4.2124 H         1 <0>         0.1083
     33 H6          5.0861   -0.2378   -1.0863 H         1 <0>         0.3930
     34 H7          5.2858   -6.7784    0.8288 H         1 <0>         0.0403
     35 H8          5.4228   -6.8534   -0.9569 H         1 <0>         0.0418
     36 H9          7.5378   -7.2134    1.0186 H         1 <0>         0.0532
     37 H10         7.6747   -7.2883   -0.7644 H         1 <0>         0.0536
     38 H11         9.1676   -3.0273    0.2830 H         1 <0>         0.1728
     39 H12        11.5940   -2.6530    0.4533 H         1 <0>         0.1231
     40 H13        12.2654   -6.8623    0.2536 H         1 <0>         0.1206
     41 H14         9.8397   -7.2463    0.0947 H         1 <0>         0.1237
@<TRIPOS>BOND
     1    1    6 ar
     2    1    2 ar
     3    1   28 1
     4    2    3 ar
     5    2   29 1
     6    3    4 ar
     7    3   30 1
     8    4    5 ar
     9    4    7 1
    10    5    6 ar
    11    5   31 1
    12    6   32 1
    13    7    8 1
    14    7   33 1
    15    8    9 1
    16    8   10 2
    17   10   11 1
    18   10   13 1
    19   11   12 3
    20   13   14 1
    21   13   15 2
    22   15   19 1
    23   15   16 1
    24   16   17 1
    25   16   34 1
    26   16   35 1
    27   17   18 1
    28   17   36 1
    29   17   37 1
    30   18   19 am
    31   18   21 1
    32   19   20 2
    33   21   26 ar
    34   21   22 ar
    35   22   23 ar
    36   22   38 1
    37   23   24 ar
    38   23   39 1
    39   24   25 ar
    40   24   27 1
    41   25   26 ar
    42   25   40 1
    43   26   41 1
@<TRIPOS>MOLECULE
ZINC13274214
   44    46     0     0     0
SMALL
USER_CHARGES
4-[4-[[4-(carboxymethyl)-5-propyl-1,2,4-triazol-3-yl]sulfanyl]-5-chloro-6-oxo-pyridazin-1-yl]benzoic acid
@<TRIPOS>ATOM
      1 C1         -9.3397   13.4154   -1.0791 C.3       1 <0>        -0.1496
      2 C2         -8.9472   11.9391   -1.1642 C.3       1 <0>        -0.1177
      3 C3         -8.6889   11.3981    0.2435 C.3       1 <0>        -0.0325
      4 C4         -8.3023    9.9439    0.1597 C.2       1 <0>         0.1992
      5 N1         -7.0936    9.4720    0.0360 N.2       1 <0>        -0.2914
      6 N2         -7.1239    8.1877   -0.0049 N.2       1 <0>        -0.2870
      7 C5         -8.3637    7.7680    0.0914 C.2       1 <0>         0.1342
      8 N3         -9.1545    8.8763    0.1935 N.pl3     1 <0>        -0.4179
      9 C6        -10.6139    8.9131    0.3164 C.3       1 <0>         0.0506
     10 C7        -10.9963    8.8803    1.7737 C.2       1 <0>         0.4546
     11 O1        -10.1378    8.8311    2.6226 O.co2     1 <0>        -0.6072
     12 S1         -8.9058    6.0915    0.0829 S.3       1 <0>         0.1586
     13 C8         -7.3490    5.2667    0.0563 C.2       1 <0>        -0.1052
     14 C9         -6.4986    5.3858   -1.0642 C.2       1 <0>         0.1241
     15 N4         -5.3465    4.7763   -1.0855 N.2       1 <0>        -0.2024
     16 N5         -4.9245    3.9936   -0.0059 N.am      1 <0>        -0.3428
     17 C10        -5.7059    3.8481    1.0822 C.2       1 <0>         0.5067
     18 O2         -5.3326    3.1591    2.0191 O.2       1 <0>        -0.4966
     19 C11        -6.9481    4.4961    1.1343 C.2       1 <0>        -0.0297
     20 Cl1        -7.9709    4.3296    2.5271 Cl        1 <0>         0.0247
     21 C12        -3.6857    3.3529   -0.0585 C.ar      1 <0>         0.1229
     22 C13        -2.8050    3.4558    1.0136 C.ar      1 <0>        -0.1040
     23 C14        -1.5821    2.8250    0.9651 C.ar      1 <0>        -0.0758
     24 C15        -1.2260    2.0802   -0.1628 C.ar      1 <0>        -0.1035
     25 C16        -2.1111    1.9833   -1.2403 C.ar      1 <0>        -0.0712
     26 C17        -3.3345    2.6123   -1.1828 C.ar      1 <0>        -0.1138
     27 C18         0.0835    1.4029   -0.2184 C.2       1 <0>         0.4912
     28 O3          0.8538    1.4922    0.7169 O.co2     1 <0>        -0.6297
     29 H1        -10.2441   13.5170   -0.4793 H         1 <0>         0.0567
     30 H2         -8.5309   13.9803   -0.6155 H         1 <0>         0.0567
     31 H3         -9.5237   13.8008   -2.0820 H         1 <0>         0.0548
     32 H4         -8.0428   11.8376   -1.7640 H         1 <0>         0.0699
     33 H5         -9.7560   11.3742   -1.6278 H         1 <0>         0.0607
     34 H6         -9.5934   11.4996    0.8433 H         1 <0>         0.0857
     35 H7         -7.8802   11.9629    0.7071 H         1 <0>         0.0975
     36 H8        -10.9938    9.8280   -0.1384 H         1 <0>         0.1050
     37 H9        -11.0432    8.0495   -0.1915 H         1 <0>         0.1009
     38 H10        -6.8045    5.9852   -1.9089 H         1 <0>         0.2032
     39 H11        -3.0808    4.0315    1.8848 H         1 <0>         0.1245
     40 H12        -0.8989    2.9054    1.7977 H         1 <0>         0.1361
     41 H13        -1.8373    1.4123   -2.1151 H         1 <0>         0.1394
     42 H14        -4.0206    2.5344   -2.0133 H         1 <0>         0.1252
     43 O4        -12.2905    8.9056    2.1287 O.co2     1 <0>        -0.7504
     44 O5          0.4229    0.6807   -1.3041 O.co2     1 <0>        -0.7546
@<TRIPOS>BOND
     1    1    2 1
     2    1   29 1
     3    1   30 1
     4    1   31 1
     5    2    3 1
     6    2   32 1
     7    2   33 1
     8    3    4 1
     9    3   34 1
    10    3   35 1
    11    4    8 1
    12    4    5 2
    13    5    6 1
    14    6    7 2
    15    7    8 1
    16    7   12 1
    17    8    9 1
    18    9   10 1
    19    9   36 1
    20    9   37 1
    21   10   11 2
    22   10   43 1
    23   12   13 1
    24   13   19 2
    25   13   14 1
    26   14   15 2
    27   14   38 1
    28   15   16 1
    29   16   17 am
    30   16   21 1
    31   17   18 2
    32   17   19 1
    33   19   20 1
    34   21   26 ar
    35   21   22 ar
    36   22   23 ar
    37   22   39 1
    38   23   24 ar
    39   23   40 1
    40   24   25 ar
    41   24   27 1
    42   25   26 ar
    43   25   41 1
    44   26   42 1
    45   27   28 2
    46   27   44 1
@<TRIPOS>MOLECULE
ZINC19882543
   56    58     0     0     0
SMALL
USER_CHARGES
(2S)-2-[2-ethoxy-4-[(Z)-[1-(4-ethoxyphenyl)-4,6-dioxo-2-thioxo-hexahydropyrimidin-5-ylidene]methyl]phenoxy]propanoic acid
@<TRIPOS>ATOM
      1 C1          2.1027   12.1318   -2.1850 C.3       1 <0>        -0.1518
      2 C2          2.1072   10.6018   -2.1874 C.3       1 <0>         0.0517
      3 O1          1.5430   10.1219   -0.9653 O.3       1 <0>        -0.3183
      4 C3          1.4722    8.7736   -0.8057 C.ar      1 <0>         0.1286
      5 C4          0.9355    8.2403    0.3571 C.ar      1 <0>        -0.1469
      6 C5          0.8630    6.8710    0.5195 C.ar      1 <0>        -0.0562
      7 C6          1.3276    6.0279   -0.4809 C.ar      1 <0>         0.1173
      8 C7          1.8698    6.5623   -1.6420 C.ar      1 <0>        -0.0252
      9 C8          1.9362    7.9317   -1.8059 C.ar      1 <0>        -0.2024
     10 N1          1.2546    4.6371   -0.3163 N.am      1 <0>        -0.5058
     11 C9          0.0454    4.0395   -0.2900 C.2       1 <0>         0.5505
     12 O2         -0.9760    4.6900   -0.4061 O.2       1 <0>        -0.4804
     13 C10        -0.0041    2.5744   -0.1161 C.2       1 <0>        -0.2945
     14 C11        -1.2051    1.8924   -0.0789 C.2       1 <0>         0.0847
     15 C12        -2.4431    2.5700   -0.4632 C.ar      1 <0>        -0.1133
     16 C13        -3.5885    2.4522    0.3388 C.ar      1 <0>        -0.0741
     17 C14        -4.7495    3.0953   -0.0232 C.ar      1 <0>        -0.2035
     18 C15        -4.7953    3.8531   -1.1877 C.ar      1 <0>         0.1442
     19 C16        -3.6625    3.9712   -1.9946 C.ar      1 <0>         0.0843
     20 C17        -2.4914    3.3354   -1.6383 C.ar      1 <0>        -0.0869
     21 O3         -3.7133    4.7139   -3.1327 O.3       1 <0>        -0.2976
     22 C18        -2.5170    4.7919   -3.9104 C.3       1 <0>         0.0520
     23 C19        -2.7659    5.6638   -5.1428 C.3       1 <0>        -0.1486
     24 O4         -5.9458    4.4802   -1.5415 O.3       1 <0>        -0.2754
     25 C20        -7.0963    4.2305   -0.7316 C.3       1 <0>         0.0339
     26 H1         -6.9685    3.2186   -0.3197 H         1 <0>         0.0755
     27 C21        -7.1803    5.2848    0.3739 C.3       1 <0>        -0.1509
     28 C22        -8.3361    4.2982   -1.5856 C.2       1 <0>         0.4730
     29 O5         -8.2439    4.5359   -2.7666 O.co2     1 <0>        -0.6127
     30 O6         -9.5428    4.0944   -1.0342 O.co2     1 <0>        -0.7598
     31 C23         1.2868    1.8710    0.0226 C.2       1 <0>         0.5349
     32 O7          1.3282    0.6647    0.1739 O.3       1 <0>        -0.5235
     33 N2          2.4191    2.6025   -0.0288 N.2       1 <0>        -0.6278
     34 C24         2.3877    3.9327   -0.1891 C.2       1 <0>         0.5488
     35 S1          3.8758    4.7780   -0.2346 S.2       1 <0>        -0.7019
     36 H2          2.5370   12.5012   -3.1257 H         1 <0>         0.0747
     37 H3          2.6991   12.4989   -1.3367 H         1 <0>         0.0644
     38 H4          1.0688   12.4953   -2.0908 H         1 <0>         0.0651
     39 H5          1.5108   10.2347   -3.0357 H         1 <0>         0.0611
     40 H6          3.1411   10.2383   -2.2816 H         1 <0>         0.0622
     41 H7          0.5741    8.8962    1.1353 H         1 <0>         0.1295
     42 H8          0.4445    6.4559    1.4245 H         1 <0>         0.1235
     43 H9          2.2351    5.9069   -2.4188 H         1 <0>         0.1244
     44 H10         2.3536    8.3474   -2.7111 H         1 <0>         0.1267
     45 H11        -1.2303    0.8399    0.2397 H         1 <0>         0.1529
     46 H12        -3.5573    1.8608    1.2420 H         1 <0>         0.1255
     47 H13        -5.6292    3.0080    0.5972 H         1 <0>         0.1393
     48 H14        -1.6142    3.4268   -2.2616 H         1 <0>         0.1234
     49 H15        -1.7136    5.2352   -3.3038 H         1 <0>         0.0601
     50 H16        -2.2206    3.7818   -4.2296 H         1 <0>         0.0535
     51 H17        -1.8450    5.7239   -5.7415 H         1 <0>         0.0721
     52 H18        -3.0622    6.6739   -4.8235 H         1 <0>         0.0660
     53 H19        -3.5694    5.2205   -5.7494 H         1 <0>         0.0662
     54 H20        -8.0659    5.0926    0.9973 H         1 <0>         0.0772
     55 H21        -7.2600    6.2845   -0.0781 H         1 <0>         0.0604
     56 H22        -6.2753    5.2353    0.9973 H         1 <0>         0.0504
@<TRIPOS>BOND
     1    1    2 1
     2    1   36 1
     3    1   37 1
     4    1   38 1
     5    2    3 1
     6    2   39 1
     7    2   40 1
     8    3    4 1
     9    4    9 ar
    10    4    5 ar
    11    5    6 ar
    12    5   41 1
    13    6    7 ar
    14    6   42 1
    15    7    8 ar
    16    7   10 1
    17    8    9 ar
    18    8   43 1
    19    9   44 1
    20   10   34 1
    21   10   11 am
    22   11   12 2
    23   11   13 1
    24   13   14 2
    25   13   31 1
    26   14   15 1
    27   14   45 1
    28   15   20 ar
    29   15   16 ar
    30   16   17 ar
    31   16   46 1
    32   17   18 ar
    33   17   47 1
    34   18   19 ar
    35   18   24 1
    36   19   20 ar
    37   19   21 1
    38   20   48 1
    39   21   22 1
    40   22   23 1
    41   22   49 1
    42   22   50 1
    43   23   51 1
    44   23   52 1
    45   23   53 1
    46   24   25 1
    47   25   26 1
    48   25   27 1
    49   25   28 1
    50   27   54 1
    51   27   55 1
    52   27   56 1
    53   28   29 2
    54   28   30 1
    55   31   32 1
    56   31   33 2
    57   33   34 1
    58   34   35 2
@<TRIPOS>MOLECULE
ZINC39679272
   46    49     0     0     0
SMALL
USER_CHARGES

@<TRIPOS>ATOM
      1 C1         -1.7437   -1.0210    7.9218 C.3       1 <0>        -0.0724
      2 C2         -1.8602   -2.4964    7.6383 C.2       1 <0>         0.0273
      3 C3         -2.7002   -3.0659    6.7564 C.2       1 <0>        -0.2660
      4 C4         -2.4941   -4.4639    6.7941 C.2       1 <0>         0.3875
      5 N1         -1.5575   -4.7081    7.6753 N.2       1 <0>        -0.4575
      6 O1         -1.1392   -3.4689    8.2184 O.3       1 <0>        -0.1250
      7 N2         -3.1675   -5.4118    6.0306 N.2       1 <0>        -1.0470
      8 S1         -2.8040   -7.0189    6.1968 S.o2      1 <0>         2.6246
      9 O2         -1.4729   -7.1848    5.7279 O.2       1 <0>        -1.0279
     10 O3         -3.2015   -7.3915    7.5092 O.2       1 <0>        -1.0297
     11 C5         -3.8439   -7.9059    5.0847 C.ar      1 <0>        -0.6460
     12 C6         -5.0851   -8.3477    5.5046 C.ar      1 <0>        -0.0058
     13 C7         -5.9025   -9.0432    4.6354 C.ar      1 <0>        -0.1767
     14 C8         -5.4769   -9.2983    3.3384 C.ar      1 <0>         0.2114
     15 C9         -4.2300   -8.8529    2.9196 C.ar      1 <0>        -0.1520
     16 C10        -3.4193   -8.1537    3.7923 C.ar      1 <0>        -0.0050
     17 N3         -6.3025  -10.0031    2.4554 N.am      1 <0>        -0.6751
     18 C11        -6.2645   -9.7322    1.1357 C.2       1 <0>         0.5352
     19 O4         -5.4451   -8.9510    0.7003 O.2       1 <0>        -0.4789
     20 C12        -7.2399  -10.3999    0.2010 C.3       1 <0>        -0.0881
     21 H1         -7.8529  -11.1219    0.7405 H         1 <0>         0.0736
     22 C13        -6.4846  -11.0928   -0.9776 C.3       1 <0>        -0.0601
     23 H2         -6.0179  -12.0522   -0.7543 H         1 <0>         0.0899
     24 C14        -7.6115  -11.0951   -2.0745 C.3       1 <0>        -0.1220
     25 C15        -7.7970   -9.5345   -2.0176 C.3       1 <0>        -0.0525
     26 H3         -8.4936   -9.0986   -2.7338 H         1 <0>         0.0894
     27 C16        -8.1310   -9.3454   -0.4999 C.3       1 <0>        -0.1463
     28 H4         -9.1852   -9.5470   -0.3095 H         1 <0>         0.0673
     29 C17        -7.7654   -7.9560   -0.0449 C.2       1 <0>         0.5041
     30 O5         -7.3045   -7.1555   -0.8406 O.co2     1 <0>        -0.6755
     31 O6         -7.9304   -7.6326    1.1190 O.co2     1 <0>        -0.6934
     32 C18        -6.3332   -9.0931   -2.1373 C.2       1 <0>        -0.0901
     33 C19        -5.5606   -9.9974   -1.5237 C.2       1 <0>        -0.1955
     34 H5         -0.9769   -0.8559    8.6787 H         1 <0>         0.0700
     35 H6         -1.4700   -0.4957    7.0068 H         1 <0>         0.0799
     36 H7         -2.6998   -0.6441    8.2849 H         1 <0>         0.0797
     37 H8         -3.4089   -2.5459    6.1289 H         1 <0>         0.1402
     38 H9         -5.4155   -8.1490    6.5135 H         1 <0>         0.1339
     39 H10        -6.8716   -9.3886    4.9642 H         1 <0>         0.1243
     40 H11        -3.8960   -9.0500    1.9117 H         1 <0>         0.1448
     41 H12        -2.4512   -7.8034    3.4660 H         1 <0>         0.1336
     42 H13        -6.9022  -10.6866    2.7931 H         1 <0>         0.4004
     43 H14        -7.2497  -11.4375   -3.0440 H         1 <0>         0.0694
     44 H15        -8.5038  -11.6336   -1.7553 H         1 <0>         0.0655
     45 H16        -5.9816   -8.1982   -2.6292 H         1 <0>         0.1191
     46 H17        -4.4846   -9.9761   -1.4338 H         1 <0>         0.1173
@<TRIPOS>BOND
     1    1    2 1
     2    1   34 1
     3    1   35 1
     4    1   36 1
     5    2    6 1
     6    2    3 2
     7    3    4 1
     8    3   37 1
     9    4    5 2
    10    4    7 1
    11    5    6 1
    12    7    8 1
    13    8    9 2
    14    8   10 2
    15    8   11 1
    16   11   16 ar
    17   11   12 ar
    18   12   13 ar
    19   12   38 1
    20   13   14 ar
    21   13   39 1
    22   14   15 ar
    23   14   17 1
    24   15   16 ar
    25   15   40 1
    26   16   41 1
    27   17   18 am
    28   17   42 1
    29   18   19 2
    30   18   20 1
    31   20   21 1
    32   20   27 1
    33   20   22 1
    34   22   23 1
    35   22   33 1
    36   22   24 1
    37   24   25 1
    38   24   43 1
    39   24   44 1
    40   25   26 1
    41   25   27 1
    42   25   32 1
    43   27   28 1
    44   27   29 1
    45   29   30 2
    46   29   31 1
    47   32   33 2
    48   32   45 1
    49   33   46 1
@<TRIPOS>MOLECULE
ZINC39709758
   52    55     0     0     0
SMALL
USER_CHARGES

@<TRIPOS>ATOM
      1 C1         -0.0167    1.3781    0.0096 C.ar      1 <0>        -0.0424
      2 C2          1.1709    2.0855    0.0021 C.ar      1 <0>        -0.0476
      3 C3          2.3773    1.4107   -0.0130 C.ar      1 <0>        -0.6524
      4 C4          2.3960    0.0285   -0.0201 C.ar      1 <0>        -0.0477
      5 C5          1.2085   -0.6789   -0.0117 C.ar      1 <0>        -0.0429
      6 C6          0.0021   -0.0041    0.0020 C.ar      1 <0>        -0.5395
      7 S1         -1.5117   -0.9057    0.0122 S.o2      1 <0>         2.5518
      8 O1         -1.2180   -2.1864    0.5532 O.2       1 <0>        -1.0349
      9 O2         -2.4924   -0.0466    0.5773 O.2       1 <0>        -1.0320
     10 N1         -1.9480   -1.1478   -1.5669 N.2       1 <0>        -0.9818
     11 C7         -3.1149   -1.8394   -1.8669 C.ar      1 <0>         0.3094
     12 C8         -3.9192   -2.3232   -0.8447 C.ar      1 <0>        -0.2821
     13 C9         -5.0816   -3.0113   -1.1484 C.ar      1 <0>         0.1109
     14 C10        -5.4511   -3.2226   -2.4755 C.ar      1 <0>        -0.0667
     15 C11        -4.6643   -2.7497   -3.5015 C.ar      1 <0>        -0.0406
     16 C12        -3.4871   -2.0460   -3.2070 C.ar      1 <0>        -0.1848
     17 C13        -2.6447   -1.5322   -4.2930 C.2       1 <0>         0.5302
     18 O3         -2.9710   -1.7134   -5.4588 O.co2     1 <0>        -0.7337
     19 O4         -1.6157   -0.9223   -4.0332 O.co2     1 <0>        -0.6495
     20 O5         -6.6024   -3.9035   -2.7536 O.3       1 <0>        -0.3167
     21 C14        -6.6028   -5.2929   -2.4206 C.3       1 <0>         0.0532
     22 C15        -6.9676   -5.4975   -0.9586 C.3       1 <0>        -0.1771
     23 C16        -5.9304   -4.9086   -0.0155 C.3       1 <0>         0.0612
     24 O6         -5.8741   -3.4871   -0.1467 O.3       1 <0>        -0.3289
     25 S2          3.8911    2.3124   -0.0238 S.o2      1 <0>         2.7113
     26 O7          4.8717    1.4529   -0.5884 O.2       1 <0>        -0.9533
     27 O8          3.5973    3.5927   -0.5658 O.2       1 <0>        -0.9528
     28 N2          4.3274    2.5556    1.5551 N.pl3     1 <0>        -1.0136
     29 C17         3.9366    3.7047    2.3848 C.3       1 <0>         0.1163
     30 C18         4.5948    3.5161    3.7678 C.3       1 <0>        -0.1286
     31 C19         5.7787    2.5610    3.4619 C.3       1 <0>        -0.1278
     32 C20         5.1667    1.6525    2.3634 C.3       1 <0>         0.1114
     33 H1         -0.9591    1.9053    0.0259 H         1 <0>         0.1469
     34 H2          1.1563    3.1654    0.0076 H         1 <0>         0.1402
     35 H3          3.3385   -0.4987   -0.0326 H         1 <0>         0.1401
     36 H4          1.2231   -1.7588   -0.0179 H         1 <0>         0.1464
     37 H5         -3.6387   -2.1636    0.1859 H         1 <0>         0.1025
     38 H6         -4.9541   -2.9164   -4.5284 H         1 <0>         0.1231
     39 H7         -7.3282   -5.8117   -3.0472 H         1 <0>         0.0818
     40 H8         -5.6110   -5.7060   -2.6040 H         1 <0>         0.0489
     41 H9         -7.9300   -5.0239   -0.7652 H         1 <0>         0.0720
     42 H10        -7.0563   -6.5661   -0.7631 H         1 <0>         0.0713
     43 H11        -6.1931   -5.1638    1.0111 H         1 <0>         0.0854
     44 H12        -4.9525   -5.3294   -0.2498 H         1 <0>         0.0524
     45 H13         4.2909    4.6290    1.9285 H         1 <0>         0.0733
     46 H14         2.8522    3.7333    2.4912 H         1 <0>         0.0687
     47 H15         4.9576    4.4682    4.1552 H         1 <0>         0.0798
     48 H16         3.8977    3.0545    4.4670 H         1 <0>         0.0767
     49 H17         6.6384    3.1134    3.0826 H         1 <0>         0.0757
     50 H18         6.0483    1.9784    4.3428 H         1 <0>         0.0816
     51 H19         4.5570    0.8685    2.8124 H         1 <0>         0.0700
     52 H20         5.9550    1.2166    1.7497 H         1 <0>         0.0848
@<TRIPOS>BOND
     1    1    6 ar
     2    1    2 ar
     3    1   33 1
     4    2    3 ar
     5    2   34 1
     6    3    4 ar
     7    3   25 1
     8    4    5 ar
     9    4   35 1
    10    5    6 ar
    11    5   36 1
    12    6    7 1
    13    7    8 2
    14    7    9 2
    15    7   10 1
    16   10   11 1
    17   11   16 ar
    18   11   12 ar
    19   12   13 ar
    20   12   37 1
    21   13   24 1
    22   13   14 ar
    23   14   15 ar
    24   14   20 1
    25   15   16 ar
    26   15   38 1
    27   16   17 1
    28   17   18 2
    29   17   19 1
    30   20   21 1
    31   21   22 1
    32   21   39 1
    33   21   40 1
    34   22   23 1
    35   22   41 1
    36   22   42 1
    37   23   24 1
    38   23   43 1
    39   23   44 1
    40   25   26 2
    41   25   27 2
    42   25   28 1
    43   28   32 1
    44   28   29 1
    45   29   30 1
    46   29   45 1
    47   29   46 1
    48   30   31 1
    49   30   47 1
    50   30   48 1
    51   31   32 1
    52   31   49 1
    53   31   50 1
    54   32   51 1
    55   32   52 1
@<TRIPOS>MOLECULE
ZINC36121754
   46    48     0     0     0
SMALL
USER_CHARGES

@<TRIPOS>ATOM
      1 C1         -0.0169    1.3930    0.0097 C.ar      1 <0>        -0.1133
      2 C2          1.1700    2.0954    0.0021 C.ar      1 <0>        -0.0439
      3 C3          2.3776    1.4198   -0.0135 C.ar      1 <0>        -0.6227
      4 C4          2.4041    0.0362   -0.0212 C.ar      1 <0>        -0.0454
      5 C5          1.2251   -0.6794   -0.0133 C.ar      1 <0>        -0.1143
      6 C6          0.0021   -0.0041    0.0020 C.ar      1 <0>        -0.1021
      7 C7         -1.2634   -0.7626    0.0105 C.2       1 <0>         0.5223
      8 O1         -2.3322   -0.1685    0.0243 O.co2     1 <0>        -0.6892
      9 O2         -1.2434   -1.9853    0.0038 O.co2     1 <0>        -0.6900
     10 S1          3.8889    2.3257   -0.0242 S.o2      1 <0>         2.6175
     11 O3          4.8718    1.4691   -0.5893 O.2       1 <0>        -1.0275
     12 O4          3.5915    3.6054   -0.5656 O.2       1 <0>        -1.0329
     13 N1          4.3249    2.5694    1.5547 N.2       1 <0>        -1.1226
     14 C8          5.5535    3.3022    1.8706 C.3       1 <0>         0.2835
     15 C9          5.7969    3.3130    3.3670 C.2       1 <0>         0.5558
     16 O5          5.0864    3.7887    4.2267 O.2       1 <0>        -0.4634
     17 N2          6.9759    2.6776    3.5344 N.am      1 <0>        -0.5650
     18 C10         7.4863    2.2782    2.3257 C.2       1 <0>         0.5354
     19 N3          6.7276    2.6006    1.3275 N.2       1 <0>        -0.5616
     20 O6          8.6571    1.6181    2.1910 O.3       1 <0>        -0.4621
     21 C11         7.6219    2.4471    4.8290 C.3       1 <0>         0.1458
     22 C12         7.7907    0.9432    5.0541 C.3       1 <0>        -0.1333
     23 C13         8.4654    0.7025    6.4061 C.3       1 <0>        -0.1133
     24 C14         9.8385    1.3772    6.4182 C.3       1 <0>        -0.1195
     25 C15         9.6697    2.8811    6.1930 C.3       1 <0>        -0.1127
     26 C16         8.9951    3.1219    4.8411 C.3       1 <0>        -0.1314
     27 C17         5.4810    4.7298    1.3249 C.3       1 <0>         0.4317
     28 F1          4.4034    5.4000    1.9139 F         1 <0>        -0.1682
     29 F2          6.6695    5.4043    1.6241 F         1 <0>        -0.2086
     30 F3          5.3036    4.6903   -0.0623 F         1 <0>        -0.1509
     31 H1         -0.9586    1.9215    0.0260 H         1 <0>         0.1270
     32 H2          1.1569    3.1753    0.0081 H         1 <0>         0.1276
     33 H3          3.3502   -0.4844   -0.0337 H         1 <0>         0.1253
     34 H4          1.2472   -1.7591   -0.0197 H         1 <0>         0.1262
     35 H5          8.8846    1.4035    1.2759 H         1 <0>         0.4244
     36 H6          7.0041    2.8663    5.6231 H         1 <0>         0.0987
     37 H7          6.8125    0.4625    5.0455 H         1 <0>         0.0699
     38 H8          8.4086    0.5240    4.2600 H         1 <0>         0.0802
     39 H9          7.8476    1.1217    7.2002 H         1 <0>         0.0626
     40 H10         8.5857   -0.3689    6.5665 H         1 <0>         0.0649
     41 H11        10.3192    1.2058    7.3813 H         1 <0>         0.0591
     42 H12        10.4564    0.9581    5.6240 H         1 <0>         0.0640
     43 H13         9.0519    3.3003    6.9871 H         1 <0>         0.0625
     44 H14        10.6480    3.3619    6.2016 H         1 <0>         0.0636
     45 H15         9.6129    2.7027    4.0469 H         1 <0>         0.0802
     46 H16         8.8748    4.1933    4.6806 H         1 <0>         0.0657
@<TRIPOS>BOND
     1    1    6 ar
     2    1    2 ar
     3    1   31 1
     4    2    3 ar
     5    2   32 1
     6    3    4 ar
     7    3   10 1
     8    4    5 ar
     9    4   33 1
    10    5    6 ar
    11    5   34 1
    12    6    7 1
    13    7    8 2
    14    7    9 1
    15   10   11 2
    16   10   12 2
    17   10   13 1
    18   13   14 1
    19   14   19 1
    20   14   15 1
    21   14   27 1
    22   15   16 2
    23   15   17 am
    24   17   18 1
    25   17   21 1
    26   18   19 2
    27   18   20 1
    28   20   35 1
    29   21   26 1
    30   21   22 1
    31   21   36 1
    32   22   23 1
    33   22   37 1
    34   22   38 1
    35   23   24 1
    36   23   39 1
    37   23   40 1
    38   24   25 1
    39   24   41 1
    40   24   42 1
    41   25   26 1
    42   25   43 1
    43   25   44 1
    44   26   45 1
    45   26   46 1
    46   27   28 1
    47   27   29 1
    48   27   30 1
@<TRIPOS>MOLECULE
ZINC20431595
   28    28     0     0     0
SMALL
USER_CHARGES
1-(aminomethyl)-1-(sulfamoylamino)cyclopentane
@<TRIPOS>ATOM
      1 C1         -1.7371    3.1640    0.5977 C.3       1 <0>        -0.1370
      2 C2         -2.0765    2.8125   -0.8721 C.3       1 <0>        -0.1208
      3 C3         -0.8084    2.1062   -1.3946 C.3       1 <0>        -0.1434
      4 C4         -0.0786    1.5443   -0.1620 C.3       1 <0>         0.1671
      5 C5         -0.9276    1.9288    1.0674 C.3       1 <0>        -0.1768
      6 C6          0.0320    0.0220   -0.2671 C.3       1 <0>         0.0051
      7 N1          0.7154   -0.5027    0.9228 N.4       1 <0>        -0.6873
      8 N2          1.2565    2.1380   -0.0554 N.pl3     1 <0>        -1.1287
      9 S1          1.4238    3.7791    0.0894 S.o2      1 <0>         2.7338
     10 O1          2.8193    4.0467    0.0884 O.2       1 <0>        -0.9942
     11 O2          0.5354    4.3627   -0.8537 O.2       1 <0>        -0.9473
     12 N3          0.8627    4.1979    1.5901 N.pl3     1 <0>        -1.1796
     13 H1         -2.6335    3.2753    1.2255 H         1 <0>         0.0776
     14 H2         -1.1137    4.0660    0.6855 H         1 <0>         0.0939
     15 H3         -2.9565    2.1530   -0.8975 H         1 <0>         0.0684
     16 H4         -2.2940    3.7358   -1.4291 H         1 <0>         0.0828
     17 H5         -1.0962    1.2975   -2.0824 H         1 <0>         0.0814
     18 H6         -0.1769    2.8328   -1.9268 H         1 <0>         0.1135
     19 H7         -0.3038    2.2057    1.9300 H         1 <0>         0.0932
     20 H8         -1.6203    1.1255    1.3587 H         1 <0>         0.0885
     21 H9         -0.9752   -0.4150   -0.3340 H         1 <0>         0.1470
     22 H10         0.6070   -0.2426   -1.1667 H         1 <0>         0.1406
     23 H11         0.7949   -1.5972    0.8472 H         1 <0>         0.4649
     24 H12         0.1404   -0.2381    1.8224 H         1 <0>         0.4566
     25 H13         2.1349    1.4930    0.0940 H         1 <0>         0.4268
     26 H14         0.9569    5.2853    1.7264 H         1 <0>         0.4241
     27 H15         1.4528    3.6793    2.3601 H         1 <0>         0.4024
     28 H16         1.7226   -0.0656    0.9897 H         1 <0>         0.4474
@<TRIPOS>BOND
     1    1    5 1
     2    1    2 1
     3    1   13 1
     4    1   14 1
     5    2    3 1
     6    2   15 1
     7    2   16 1
     8    3    4 1
     9    3   17 1
    10    3   18 1
    11    4    5 1
    12    4    6 1
    13    4    8 1
    14    5   19 1
    15    5   20 1
    16    6    7 1
    17    6   21 1
    18    6   22 1
    19    7   23 1
    20    7   24 1
    21    7   28 1
    22    8    9 1
    23    8   25 1
    24    9   10 2
    25    9   11 2
    26    9   12 1
    27   12   26 1
    28   12   27 1
@<TRIPOS>MOLECULE
ZINC39087511
   23    23     0     0     0
SMALL
USER_CHARGES

@<TRIPOS>ATOM
      1 C1         -0.0173    1.4248    0.0099 C.3       1 <0>         0.0239
      2 O1          0.0021   -0.0041    0.0020 O.3       1 <0>        -0.3618
      3 C2          0.5984   -0.5997   -1.0427 C.2       1 <0>         0.4174
      4 O2          1.0877    0.0699   -1.9214 O.2       1 <0>        -0.4407
      5 C3          0.6575   -2.1036   -1.1196 C.3       1 <0>         0.0637
      6 H1         -0.2907   -2.5296   -0.7919 H         1 <0>         0.1263
      7 C4          1.8027   -2.6295   -0.2346 C.3       1 <0>         0.0326
      8 H2          1.4123   -3.3020    0.5292 H         1 <0>         0.1691
      9 C5          2.7378   -3.3965   -1.1976 C.3       1 <0>        -0.1438
     10 C6          1.8062   -3.7352   -2.3885 C.3       1 <0>         0.0417
     11 N1          0.9469   -2.5261   -2.5072 N.3       1 <0>        -0.6505
     12 N2          2.5191   -1.5098    0.3909 N.4       1 <0>        -0.6392
     13 H3          1.0053    1.8021    0.0021 H         1 <0>         0.0678
     14 H4         -0.5445    1.7859   -0.8732 H         1 <0>         0.0749
     15 H5         -0.5275    1.7763    0.9067 H         1 <0>         0.1186
     16 H6          3.5626   -2.7617   -1.5215 H         1 <0>         0.1036
     17 H7          3.1113   -4.3069   -0.7290 H         1 <0>         0.1179
     18 H8          2.3857   -3.8869   -3.2991 H         1 <0>         0.1154
     19 H9          1.2009   -4.6138   -2.1655 H         1 <0>         0.0714
     20 H10         0.0952   -2.7317   -3.0076 H         1 <0>         0.3725
     21 H11         1.8792   -0.9781    0.9618 H         1 <0>         0.4378
     22 H12         3.2658   -1.8682    0.9672 H         1 <0>         0.4447
     23 H13         2.9043   -0.9142   -0.3266 H         1 <0>         0.4368
@<TRIPOS>BOND
     1    1    2 1
     2    1   13 1
     3    1   14 1
     4    1   15 1
     5    2    3 1
     6    3    4 2
     7    3    5 1
     8    5    6 1
     9    5   11 1
    10    5    7 1
    11    7    8 1
    12    7    9 1
    13    7   12 1
    14    9   10 1
    15    9   16 1
    16    9   17 1
    17   10   11 1
    18   10   18 1
    19   10   19 1
    20   11   20 1
    21   12   21 1
    22   12   22 1
    23   12   23 1
@<TRIPOS>MOLECULE
ZINC44249439
   20    19     0     0     0
SMALL
USER_CHARGES

@<TRIPOS>ATOM
      1 C1          0.2904    0.8335   -1.2889 C.3       1 <0>        -0.2123
      2 C2         -0.0626    0.0951   -0.0235 C.2       1 <0>         0.3450
      3 O1          0.6847    0.1300    0.9245 O.2       1 <0>        -0.4118
      4 C3         -1.3482   -0.6868    0.0590 C.3       1 <0>        -0.1600
      5 H1         -2.1071   -0.2043   -0.5570 H         1 <0>         0.1481
      6 C4         -1.8247   -0.7331    1.5121 C.3       1 <0>         0.0092
      7 N1         -2.1752    0.6227    1.9559 N.4       1 <0>        -0.6388
      8 C5         -1.1154   -2.0902   -0.4383 C.2       1 <0>         0.2706
      9 S1         -1.1397   -3.3163    0.5878 S.2       1 <0>        -0.3748
     10 N2         -0.8867   -2.3119   -1.7479 N.pl3     1 <0>        -0.7650
     11 H2          1.2027    1.4088   -1.1313 H         1 <0>         0.1062
     12 H3          0.4472    0.1175   -2.0956 H         1 <0>         0.1023
     13 H4         -0.5232    1.5082   -1.5549 H         1 <0>         0.1066
     14 H5         -2.7005   -1.3776    1.5870 H         1 <0>         0.1612
     15 H6         -1.0283   -1.1274    2.1433 H         1 <0>         0.1636
     16 H7         -1.3457    1.1970    1.9700 H         1 <0>         0.4329
     17 H8         -2.8494    1.0211    1.3197 H         1 <0>         0.4326
     18 H9         -0.8719   -1.5681   -2.3703 H         1 <0>         0.4017
     19 H10        -0.7368   -3.2152   -2.0679 H         1 <0>         0.4342
     20 H11        -2.5713    0.5813    2.8830 H         1 <0>         0.4487
@<TRIPOS>BOND
     1    1    2 1
     2    1   11 1
     3    1   12 1
     4    1   13 1
     5    2    3 2
     6    2    4 1
     7    4    5 1
     8    4    6 1
     9    4    8 1
    10    6    7 1
    11    6   14 1
    12    6   15 1
    13    7   16 1
    14    7   17 1
    15    7   20 1
    16    8    9 2
    17    8   10 1
    18   10   18 1
    19   10   19 1
@<TRIPOS>MOLECULE
ZINC39095193
   19    20     0     0     0
SMALL
USER_CHARGES

@<TRIPOS>ATOM
      1 C1         -0.0180    1.4726    0.0101 C.3       1 <0>         0.0413
      2 C2          1.5055    1.4308   -0.0046 C.3       1 <0>        -0.0012
      3 C3          1.3330    0.0600    0.6388 C.3       1 <0>         0.0267
      4 N1          0.0021   -0.0041    0.0020 N.4       1 <0>        -0.5241
      5 C4          2.2133    2.4725    0.8145 C.2       1 <0>         0.5147
      6 O1          2.1681    2.5819    2.0215 O.2       1 <0>        -0.4861
      7 N2          2.9097    3.2665   -0.0296 N.am      1 <0>        -0.7382
      8 C5          2.6887    2.8269   -1.4139 C.3       1 <0>         0.2494
      9 N3          2.1426    1.4503   -1.3304 N.3       1 <0>        -0.6311
     10 H1         -0.4327    1.8970    0.9245 H         1 <0>         0.1651
     11 H2         -0.4500    1.9068   -0.8915 H         1 <0>         0.1547
     12 H3          2.0315   -0.6878    0.2632 H         1 <0>         0.1493
     13 H4          1.2933    0.0924    1.7276 H         1 <0>         0.1711
     14 H5         -0.7046   -0.4175    0.5917 H         1 <0>         0.4358
     15 H6          3.4691    4.0124    0.2378 H         1 <0>         0.4356
     16 H7          1.9723    3.4848   -1.9059 H         1 <0>         0.1111
     17 H8          3.6316    2.8233   -1.9608 H         1 <0>         0.1072
     18 H9          2.8805    0.7645   -1.3870 H         1 <0>         0.3703
     19 H10         0.0207   -0.3993   -0.9261 H         1 <0>         0.4483
@<TRIPOS>BOND
     1    1    4 1
     2    1    2 1
     3    1   10 1
     4    1   11 1
     5    2    9 1
     6    2    3 1
     7    2    5 1
     8    3    4 1
     9    3   12 1
    10    3   13 1
    11    4   14 1
    12    4   19 1
    13    5    6 2
    14    5    7 am
    15    7    8 1
    16    7   15 1
    17    8    9 1
    18    8   16 1
    19    8   17 1
    20    9   18 1
@<TRIPOS>MOLECULE
ZINC62962740
   29    29     0     0     0
SMALL
USER_CHARGES

@<TRIPOS>ATOM
      1 C1         -0.5773    1.6413    0.5318 C.3       1 <0>        -0.1601
      2 C2         -0.3400    0.1339    0.4220 C.3       1 <0>         0.0357
      3 N1         -1.6077   -0.5401    0.1111 N.3       1 <0>        -0.6726
      4 C3         -1.3987   -1.9765   -0.1148 C.3       1 <0>         0.1105
      5 C4         -0.4128   -2.1522   -1.2690 C.3       1 <0>        -0.1309
      6 C5         -0.6758   -3.4971   -2.0023 C.3       1 <0>        -0.5700
      7 S1         -2.5223   -3.5065   -1.9750 S.o2      1 <0>         2.3843
      8 O1         -2.9812   -4.8463   -1.8580 O.2       1 <0>        -0.9182
      9 O2         -3.0095   -2.6861   -3.0280 O.2       1 <0>        -0.9017
     10 C6         -2.7661   -2.6406   -0.3685 C.3       1 <0>        -0.6191
     11 C7         -0.7845   -2.5855    1.1472 C.3       1 <0>        -0.0549
     12 N2         -1.6091   -2.2351    2.3113 N.4       1 <0>        -0.6396
     13 H1          0.3633    2.1414    0.7624 H         1 <0>         0.0745
     14 H2         -0.9665    2.0177   -0.4143 H         1 <0>         0.0768
     15 H3         -1.2979    1.8388    1.3254 H         1 <0>         0.0577
     16 H4          0.3806   -0.0636   -0.3717 H         1 <0>         0.0974
     17 H5          0.0492   -0.2425    1.3680 H         1 <0>         0.0308
     18 H6         -2.2883   -0.3839    0.8395 H         1 <0>         0.3436
     19 H7         -0.5311   -1.3284   -1.9729 H         1 <0>         0.1235
     20 H8          0.6046   -2.1476   -0.8780 H         1 <0>         0.1112
     21 H9         -0.2937   -3.4745   -3.0229 H         1 <0>         0.1572
     22 H10        -0.2659   -4.3399   -1.4458 H         1 <0>         0.1434
     23 H11        -2.9997   -3.3542    0.4216 H         1 <0>         0.1392
     24 H12        -3.5498   -1.8877   -0.4524 H         1 <0>         0.1680
     25 H13        -0.7432   -3.6698    1.0443 H         1 <0>         0.1509
     26 H14         0.2238   -2.1950    1.2854 H         1 <0>         0.1501
     27 H15        -1.2516   -2.7040    3.1301 H         1 <0>         0.4460
     28 H16        -1.5801   -1.2369    2.4558 H         1 <0>         0.4301
     29 H17        -2.5620   -2.5237    2.1476 H         1 <0>         0.4361
@<TRIPOS>BOND
     1    1    2 1
     2    1   13 1
     3    1   14 1
     4    1   15 1
     5    2    3 1
     6    2   16 1
     7    2   17 1
     8    3    4 1
     9    3   18 1
    10    4   10 1
    11    4    5 1
    12    4   11 1
    13    5    6 1
    14    5   19 1
    15    5   20 1
    16    6    7 1
    17    6   21 1
    18    6   22 1
    19    7    8 2
    20    7    9 2
    21    7   10 1
    22   10   23 1
    23   10   24 1
    24   11   12 1
    25   11   25 1
    26   11   26 1
    27   12   27 1
    28   12   28 1
    29   12   29 1
@<TRIPOS>MOLECULE
ZINC06732180
   23    23     0     0     0
SMALL
USER_CHARGES
4-(1-aminoethyl)aniline
@<TRIPOS>ATOM
      1 C1          3.0705    1.0054    1.3988 C.3       1 <0>        -0.1804
      2 C2          2.4896    1.0445   -0.0161 C.3       1 <0>         0.0963
      3 H1          2.3299    0.0265   -0.3715 H         1 <0>         0.1412
      4 C3          1.1759    1.7827    0.0004 C.ar      1 <0>        -0.2168
      5 C4         -0.0126    1.0758    0.0080 C.ar      1 <0>        -0.0345
      6 C5         -1.2183    1.7492    0.0173 C.ar      1 <0>        -0.1920
      7 C6         -1.2361    3.1382    0.0307 C.ar      1 <0>         0.2477
      8 C7         -0.0404    3.8451    0.0236 C.ar      1 <0>        -0.1911
      9 C8          1.1617    3.1655    0.0084 C.ar      1 <0>        -0.0665
     10 N1         -2.4537    3.8224    0.0460 N.pl3     1 <0>        -0.8634
     11 H2          2.3744    0.4935    2.0633 H         1 <0>         0.1054
     12 H3          4.0207    0.4714    1.3869 H         1 <0>         0.0814
     13 H4          3.2302    2.0233    1.7543 H         1 <0>         0.0803
     14 H5          0.0021   -0.0041    0.0020 H         1 <0>         0.1321
     15 H6         -2.1462    1.1966    0.0187 H         1 <0>         0.1333
     16 H7         -0.0508    4.9251    0.0295 H         1 <0>         0.1316
     17 H8          2.0917    3.7145    0.0025 H         1 <0>         0.1179
     18 H9         -2.4650    4.7923    0.0517 H         1 <0>         0.4067
     19 H10        -3.2881    3.3276    0.0510 H         1 <0>         0.4075
     20 H11         3.0969    1.7169   -1.8647 H         1 <0>         0.4386
     21 H12         3.5924    2.6808   -0.6033 H         1 <0>         0.4311
     22 N2          3.4482    1.7197   -0.9086 N.4       1 <0>        -0.6458
     23 H13         4.3452    1.2209   -0.8798 H         1 <0>         0.4395
@<TRIPOS>BOND
     1    1    2 1
     2    1   11 1
     3    1   12 1
     4    1   13 1
     5    2    3 1
     6    2    4 1
     7    2   22 1
     8    4    9 ar
     9    4    5 ar
    10    5    6 ar
    11    5   14 1
    12    6    7 ar
    13    6   15 1
    14    7    8 ar
    15    7   10 1
    16    8    9 ar
    17    8   16 1
    18    9   17 1
    19   10   18 1
    20   10   19 1
    21   20   22 1
    22   21   22 1
    23   22   23 1
@<TRIPOS>MOLECULE
ZINC34273814
   19    18     0     0     0
SMALL
USER_CHARGES

@<TRIPOS>ATOM
      1 C1         -0.0187    1.5258    0.0104 C.3       1 <0>        -0.1855
      2 C2          0.0021   -0.0041    0.0020 C.3       1 <0>        -0.0051
      3 N1         -1.3761   -0.5125    0.0124 N.4       1 <0>        -0.6378
      4 C3          1.4167    2.0553   -0.0004 C.3       1 <0>         0.1100
      5 H1          1.9696    1.6236    0.8338 H         1 <0>         0.1175
      6 C4          1.3991    3.5794    0.1337 C.3       1 <0>         0.0428
      7 O1          2.7392    4.0637    0.2406 O.3       1 <0>        -0.5619
      8 O2          2.0490    1.6926   -1.2295 O.3       1 <0>        -0.5478
      9 H2         -0.5459    1.8868   -0.8726 H         1 <0>         0.0944
     10 H3         -0.5289    1.8773    0.9072 H         1 <0>         0.1010
     11 H4          0.5123   -0.3556   -0.8948 H         1 <0>         0.1416
     12 H5          0.5293   -0.3651    0.8851 H         1 <0>         0.1368
     13 H6         -1.8484   -0.1871    0.8426 H         1 <0>         0.4350
     14 H7         -1.8641   -0.1783   -0.8050 H         1 <0>         0.4352
     15 H8          0.9240    4.0159   -0.7449 H         1 <0>         0.0531
     16 H9          0.8393    3.8591    1.0261 H         1 <0>         0.0582
     17 H10         2.8044    5.0244    0.3288 H         1 <0>         0.3915
     18 H11         1.6095    2.0432   -2.0163 H         1 <0>         0.3802
     19 H12        -1.3624   -1.5214    0.0069 H         1 <0>         0.4407
@<TRIPOS>BOND
     1    1    2 1
     2    1    4 1
     3    1    9 1
     4    1   10 1
     5    2    3 1
     6    2   11 1
     7    2   12 1
     8    3   13 1
     9    3   14 1
    10    3   19 1
    11    4    5 1
    12    4    6 1
    13    4    8 1
    14    6    7 1
    15    6   15 1
    16    6   16 1
    17    7   17 1
    18    8   18 1
@<TRIPOS>MOLECULE
ZINC39114289
   25    26     0     0     0
SMALL
USER_CHARGES

@<TRIPOS>ATOM
      1 C1         -0.0184    1.5028    0.0103 C.3       1 <0>        -0.1048
      2 C2          0.0021   -0.0041    0.0020 C.ar      1 <0>         0.0589
      3 C3          0.0057   -0.6855   -1.2003 C.ar      1 <0>         0.1126
      4 N1          0.0250   -2.0079   -1.2106 N.ar      1 <0>        -0.4681
      5 C4          0.0400   -2.6765   -0.0657 C.ar      1 <0>         0.3402
      6 C5          0.0339   -1.9897    1.1446 C.ar      1 <0>         0.0033
      7 N2          0.0219   -0.6682    1.1447 N.ar      1 <0>        -0.3708
      8 C6          0.0427   -2.7334    2.4539 C.3       1 <0>         0.3449
      9 H1         -0.9694   -2.7654    2.8573 H         1 <0>         0.1126
     10 N3          0.5315   -4.1035    2.2598 N.3       1 <0>        -0.7091
     11 C7         -0.2150   -4.7773    1.1843 C.3       1 <0>         0.4527
     12 H2         -1.2831   -4.7412    1.3985 H         1 <0>         0.1713
     13 N4          0.0639   -4.0695   -0.0743 N.pl3     1 <0>        -0.7683
     14 N5          0.2227   -6.1755    1.0764 N.4       1 <0>        -0.6361
     15 O1          0.8982   -2.0562    3.3766 O.3       1 <0>        -0.5225
     16 H3          1.0042    1.8801    0.0026 H         1 <0>         0.0887
     17 H4         -0.5455    1.8639   -0.8728 H         1 <0>         0.0869
     18 H5         -0.5286    1.8543    0.9071 H         1 <0>         0.0864
     19 H6         -0.0077   -0.1383   -2.1313 H         1 <0>         0.1862
     20 H7          1.5227   -4.1104    2.0712 H         1 <0>         0.3715
     21 H8          0.2589   -4.5593   -0.8885 H         1 <0>         0.4181
     22 H9          0.0510   -6.6500    1.9502 H         1 <0>         0.4591
     23 H10        -0.2914   -6.6329    0.3385 H         1 <0>         0.4493
     24 H11         0.9537   -2.4789    4.2446 H         1 <0>         0.3991
     25 H12         1.2092   -6.2038    0.8666 H         1 <0>         0.4378
@<TRIPOS>BOND
     1    1    2 1
     2    1   16 1
     3    1   17 1
     4    1   18 1
     5    2    7 ar
     6    2    3 ar
     7    3    4 ar
     8    3   19 1
     9    4    5 ar
    10    5   13 1
    11    5    6 ar
    12    6    7 ar
    13    6    8 1
    14    8    9 1
    15    8   10 1
    16    8   15 1
    17   10   11 1
    18   10   20 1
    19   11   12 1
    20   11   13 1
    21   11   14 1
    22   13   21 1
    23   14   22 1
    24   14   23 1
    25   14   25 1
    26   15   24 1
@<TRIPOS>MOLECULE
ZINC44469765
   26    26     0     0     0
SMALL
USER_CHARGES

@<TRIPOS>ATOM
      1 C1         -0.0184    1.5028    0.0103 C.3       1 <0>        -0.0910
      2 C2          0.0021   -0.0041    0.0020 C.2       1 <0>        -0.1811
      3 C3          0.0089   -0.8403   -1.1379 C.2       1 <0>        -0.1590
      4 C4          0.0287   -2.1088   -0.6906 C.2       1 <0>        -0.0517
      5 O1          0.0343   -2.0852    0.6522 O.3       1 <0>        -0.1690
      6 C5          0.0233   -0.8114    1.0777 C.2       1 <0>         0.0169
      7 C6          0.0300   -0.3627    2.5164 C.3       1 <0>        -0.0829
      8 C7          0.0419   -3.3464   -1.5504 C.3       1 <0>         0.1713
      9 H1         -0.3178   -3.0988   -2.5491 H         1 <0>         0.1326
     10 C8          1.4698   -3.8882   -1.6424 C.3       1 <0>        -0.0547
     11 N1          1.4649   -5.1588   -2.3797 N.4       1 <0>        -0.6366
     12 N2         -0.8313   -4.3661   -0.9542 N.3       1 <0>        -0.8351
     13 H2          1.0042    1.8801    0.0026 H         1 <0>         0.0718
     14 H3         -0.5455    1.8639   -0.8728 H         1 <0>         0.0712
     15 H4         -0.5286    1.8543    0.9071 H         1 <0>         0.0709
     16 H5         -0.0007   -0.5219   -2.1699 H         1 <0>         0.1532
     17 H6         -0.9959   -0.2691    2.8726 H         1 <0>         0.0894
     18 H7          0.5598   -1.0968    3.1234 H         1 <0>         0.0802
     19 H8          0.5310    0.6022    2.5937 H         1 <0>         0.0957
     20 H9          2.0990   -3.1675   -2.1647 H         1 <0>         0.1492
     21 H10         1.8616   -4.0522   -0.6385 H         1 <0>         0.1393
     22 H11         0.8824   -5.8260   -1.8962 H         1 <0>         0.4276
     23 H12         1.1022   -5.0070   -3.3089 H         1 <0>         0.4382
     24 H13        -0.8903   -5.1819   -1.5450 H         1 <0>         0.3437
     25 H14        -0.5186   -4.6129   -0.0272 H         1 <0>         0.3652
     26 H15         2.4065   -5.5161   -2.4403 H         1 <0>         0.4446
@<TRIPOS>BOND
     1    1    2 1
     2    1   13 1
     3    1   14 1
     4    1   15 1
     5    2    6 2
     6    2    3 1
     7    3    4 2
     8    3   16 1
     9    4    5 1
    10    4    8 1
    11    5    6 1
    12    6    7 1
    13    7   17 1
    14    7   18 1
    15    7   19 1
    16    8    9 1
    17    8   10 1
    18    8   12 1
    19   10   11 1
    20   10   20 1
    21   10   21 1
    22   11   22 1
    23   11   23 1
    24   11   26 1
    25   12   24 1
    26   12   25 1
@<TRIPOS>MOLECULE
ZINC61991210
   23    23     0     0     0
SMALL
USER_CHARGES

@<TRIPOS>ATOM
      1 C1         -0.0178    1.4648    0.0101 C.3       1 <0>        -0.0439
      2 N1          0.0021   -0.0041    0.0020 N.4       1 <0>        -0.4019
      3 C2         -1.3755   -0.5431    0.1387 C.3       1 <0>        -0.0008
      4 C3         -1.1803   -1.9787    0.6719 C.3       1 <0>        -0.1402
      5 C4          0.1959   -1.9639    1.3686 C.3       1 <0>        -0.0474
      6 C5          0.7164   -0.5206    1.1978 C.3       1 <0>        -0.0003
      7 C6          0.0459   -2.2966    2.8308 C.2       1 <0>         0.4991
      8 O1          0.6344   -3.2551    3.3013 O.co2     1 <0>        -0.6343
      9 O2         -0.6640   -1.6074    3.5431 O.co2     1 <0>        -0.6101
     10 N2          1.1071   -2.9153    0.7186 N.4       1 <0>        -0.6122
     11 H1          1.0047    1.8421    0.0024 H         1 <0>         0.1270
     12 H2         -0.5450    1.8259   -0.8730 H         1 <0>         0.1298
     13 H3         -0.5280    1.8163    0.9069 H         1 <0>         0.1304
     14 H4         -1.9478    0.0521    0.8502 H         1 <0>         0.1502
     15 H5         -1.8742   -0.5621   -0.8304 H         1 <0>         0.1474
     16 H6         -1.9643   -2.2267    1.3874 H         1 <0>         0.1460
     17 H7         -1.1797   -2.6919   -0.1524 H         1 <0>         0.1101
     18 H8          1.7928   -0.5225    1.0262 H         1 <0>         0.1455
     19 H9          0.4715    0.0782    2.0751 H         1 <0>         0.1762
     20 H10         1.2070   -2.6731   -0.2558 H         1 <0>         0.4117
     21 H11         2.0094   -2.8778    1.1687 H         1 <0>         0.4450
     22 H12         0.4347   -0.3465   -0.8428 H         1 <0>         0.4222
     23 H13         0.7308   -3.8482    0.7965 H         1 <0>         0.4506
@<TRIPOS>BOND
     1    1    2 1
     2    1   11 1
     3    1   12 1
     4    1   13 1
     5    2    6 1
     6    2    3 1
     7    2   22 1
     8    3    4 1
     9    3   14 1
    10    3   15 1
    11    4    5 1
    12    4   16 1
    13    4   17 1
    14    5    6 1
    15    5    7 1
    16    5   10 1
    17    6   18 1
    18    6   19 1
    19    7    8 2
    20    7    9 1
    21   10   20 1
    22   10   21 1
    23   10   23 1
@<TRIPOS>MOLECULE
ZINC00390246
   36    39     0     0     0
SMALL
USER_CHARGES
amino-[(4-fluorophenyl)methyl]BLAHcarbonitrile
@<TRIPOS>ATOM
      1 C1          5.2339   -1.6407    4.7085 C.ar      1 <0>        -0.1014
      2 C2          5.6415   -1.1857    3.4555 C.ar      1 <0>        -0.0996
      3 C3          4.7307   -0.8524    2.5017 C.ar      1 <0>        -0.0852
      4 C4          3.3552   -0.9658    2.7764 C.ar      1 <0>         0.0997
      5 C5          2.9409   -1.4290    4.0504 C.ar      1 <0>         0.0903
      6 C6          3.9136   -1.7642    5.0113 C.ar      1 <0>        -0.0819
      7 N1          1.6393   -1.5462    4.3374 N.ar      1 <0>        -0.4166
      8 C7          0.7413   -1.2279    3.4258 C.ar      1 <0>         0.1738
      9 C8         -0.7294   -1.2285    3.3838 C.2       1 <0>        -0.2147
     10 C9         -1.0883   -0.7775    2.1196 C.2       1 <0>         0.5016
     11 N2          0.0219   -0.4998    1.3805 N.pl3     1 <0>        -0.4807
     12 C10         1.1675   -0.7548    2.1058 C.ar      1 <0>         0.2949
     13 N3          2.4520   -0.6395    1.8435 N.ar      1 <0>        -0.4364
     14 C11         0.0021   -0.0041    0.0020 C.3       1 <0>         0.1501
     15 C12        -0.0184    1.5028    0.0103 C.ar      1 <0>        -0.1388
     16 C13        -1.2252    2.1771    0.0197 C.ar      1 <0>        -0.0714
     17 C14        -1.2451    3.5589    0.0321 C.ar      1 <0>        -0.1545
     18 C15        -0.0559    4.2680    0.0246 C.ar      1 <0>         0.1152
     19 C16         1.1521    3.5915    0.0099 C.ar      1 <0>        -0.1536
     20 C17         1.1697    2.2097    0.0028 C.ar      1 <0>        -0.0572
     21 F1         -0.0742    5.6188    0.0320 F         1 <0>        -0.1343
     22 N4         -2.3793   -0.6319    1.6778 N.pl3     1 <0>        -0.8232
     23 C18        -1.6165   -1.6180    4.4383 C.1       1 <0>         0.2971
     24 N5         -2.3202   -1.9271    5.2748 N.1       1 <0>        -0.4356
     25 H1          5.9766   -1.8990    5.4488 H         1 <0>         0.1355
     26 H2          6.6958   -1.0969    3.2388 H         1 <0>         0.1354
     27 H3          5.0625   -0.5010    1.5358 H         1 <0>         0.1382
     28 H4          3.6124   -2.1188    5.9860 H         1 <0>         0.1396
     29 H5         -0.8878   -0.3767   -0.5053 H         1 <0>         0.1039
     30 H6          0.8920   -0.3525   -0.5222 H         1 <0>         0.1180
     31 H7         -2.1527    1.6238    0.0214 H         1 <0>         0.1294
     32 H8         -2.1880    4.0855    0.0436 H         1 <0>         0.1405
     33 H9          2.0804    4.1436    0.0043 H         1 <0>         0.1407
     34 H10         2.1118    1.6818   -0.0084 H         1 <0>         0.1408
     35 H11        -2.5510   -0.3101    0.7790 H         1 <0>         0.4096
     36 H12        -3.1202   -0.8508    2.2643 H         1 <0>         0.4308
@<TRIPOS>BOND
     1    1    6 ar
     2    1    2 ar
     3    1   25 1
     4    2    3 ar
     5    2   26 1
     6    3    4 ar
     7    3   27 1
     8    4   13 ar
     9    4    5 ar
    10    5    6 ar
    11    5    7 ar
    12    6   28 1
    13    7    8 ar
    14    8   12 ar
    15    8    9 1
    16    9   10 2
    17    9   23 1
    18   10   11 1
    19   10   22 1
    20   11   12 1
    21   11   14 1
    22   12   13 ar
    23   14   15 1
    24   14   29 1
    25   14   30 1
    26   15   20 ar
    27   15   16 ar
    28   16   17 ar
    29   16   31 1
    30   17   18 ar
    31   17   32 1
    32   18   19 ar
    33   18   21 1
    34   19   20 ar
    35   19   33 1
    36   20   34 1
    37   22   35 1
    38   22   36 1
    39   23   24 3
@<TRIPOS>MOLECULE
ZINC15157247
   53    56     0     0     0
SMALL
USER_CHARGES
(2S,4aR,6aS,7R,8R,10aR,10bR)-2-(3-furyl)-7,8-dihydroxy-6a,7,10b-trimethyl-2,4a,5,6,8,9,10,10a-octahydro-1H-benzo[f]isochromen-4-one
@<TRIPOS>ATOM
      1 C1         -0.5250    5.1441   -0.0291 C.3       1 <0>        -0.1525
      2 C2         -1.2150    3.7713    0.0879 C.3       1 <0>        -0.0192
      3 C3         -2.6812    4.0337    0.3597 C.3       1 <0>        -0.0997
      4 C4         -2.8897    4.9406    1.5721 C.3       1 <0>        -0.1003
      5 C5         -1.7544    4.8680    2.5741 C.3       1 <0>        -0.1218
      6 H1         -0.9916    5.6193    2.3535 H         1 <0>         0.1132
      7 C6         -2.2696    5.1757    3.9667 C.2       1 <0>         0.4893
      8 O1         -3.2897    5.8302    4.0846 O.2       1 <0>        -0.4699
      9 O2         -1.6194    4.7441    5.0426 O.3       1 <0>        -0.3538
     10 C7         -0.4900    3.8590    5.0190 C.3       1 <0>         0.1880
     11 H2         -0.7681    2.9068    5.5005 H         1 <0>         0.1044
     12 C8          0.0395    3.5595    3.6212 C.3       1 <0>        -0.1449
     13 C9         -1.1186    3.4816    2.6116 C.3       1 <0>        -0.0424
     14 C10        -0.5632    3.0551    1.2556 C.3       1 <0>        -0.0496
     15 H3          0.5136    3.3034    1.2355 H         1 <0>         0.0761
     16 C11        -0.6845    1.5343    1.1290 C.3       1 <0>        -0.1149
     17 C12        -0.0444    1.0820   -0.1897 C.3       1 <0>        -0.1557
     18 C13        -0.9024    1.6455   -1.3204 C.3       1 <0>         0.0865
     19 H4         -0.4819    1.3292   -2.2755 H         1 <0>         0.0518
     20 C14        -0.9219    3.1572   -1.2609 C.3       1 <0>         0.1612
     21 C15        -1.8828    3.6773   -2.3246 C.3       1 <0>        -0.1776
     22 O3          0.3967    3.6066   -1.6324 O.3       1 <0>        -0.5573
     23 O4         -2.2330    1.1440   -1.2057 O.3       1 <0>        -0.5550
     24 C16        -2.1481    2.4776    3.1394 C.3       1 <0>        -0.1609
     25 C17         0.6250    4.4530    5.8407 C.2       1 <0>        -0.2030
     26 C18         1.4909    3.7563    6.7146 C.2       1 <0>        -0.1999
     27 C19         2.3311    4.6669    7.2384 C.2       1 <0>        -0.0344
     28 O5          2.0216    5.8713    6.7310 O.3       1 <0>        -0.1727
     29 C20         0.9910    5.7468    5.8789 C.2       1 <0>        -0.0105
     30 H5         -0.8335    5.6280   -0.9559 H         1 <0>         0.0556
     31 H6         -0.8100    5.7674    0.8185 H         1 <0>         0.0540
     32 H7          0.5565    5.0081   -0.0328 H         1 <0>         0.0673
     33 H8         -3.1724    4.5305   -0.4832 H         1 <0>         0.0694
     34 H9         -3.2013    3.0838    0.5302 H         1 <0>         0.0703
     35 H10        -3.0080    5.9745    1.2266 H         1 <0>         0.0702
     36 H11        -3.8290    4.6559    2.0637 H         1 <0>         0.0735
     37 H12         0.5689    2.6053    3.6245 H         1 <0>         0.0958
     38 H13         0.7263    4.3483    3.3105 H         1 <0>         0.0805
     39 H14        -1.7305    1.2286    1.0925 H         1 <0>         0.0790
     40 H15        -0.1696    1.0478    1.9548 H         1 <0>         0.0646
     41 H16        -0.0391   -0.0039   -0.2390 H         1 <0>         0.0663
     42 H17         0.9664    1.4719   -0.2606 H         1 <0>         0.0786
     43 H18        -2.8823    3.2868   -2.1335 H         1 <0>         0.0775
     44 H19        -1.9059    4.7666   -2.2920 H         1 <0>         0.0656
     45 H20        -1.5470    3.3503   -3.3087 H         1 <0>         0.0559
     46 H21         0.6689    3.3359   -2.5200 H         1 <0>         0.3693
     47 H22        -2.2956    0.1802   -1.2542 H         1 <0>         0.3780
     48 H23        -3.0163    2.4671    2.4805 H         1 <0>         0.0696
     49 H24        -1.7031    1.4831    3.1700 H         1 <0>         0.0718
     50 H25        -2.4574    2.7683    4.1433 H         1 <0>         0.0552
     51 H26         1.4796    2.6966    6.9222 H         1 <0>         0.1524
     52 H27         3.1204    4.4640    7.9471 H         1 <0>         0.2060
     53 H28         0.5323    6.5497    5.3209 H         1 <0>         0.1993
@<TRIPOS>BOND
     1    1    2 1
     2    1   30 1
     3    1   31 1
     4    1   32 1
     5    2   14 1
     6    2   20 1
     7    2    3 1
     8    3    4 1
     9    3   33 1
    10    3   34 1
    11    4    5 1
    12    4   35 1
    13    4   36 1
    14    5    6 1
    15    5   13 1
    16    5    7 1
    17    7    8 2
    18    7    9 1
    19    9   10 1
    20   10   11 1
    21   10   12 1
    22   10   25 1
    23   12   13 1
    24   12   37 1
    25   12   38 1
    26   13   14 1
    27   13   24 1
    28   14   15 1
    29   14   16 1
    30   16   17 1
    31   16   39 1
    32   16   40 1
    33   17   18 1
    34   17   41 1
    35   17   42 1
    36   18   19 1
    37   18   20 1
    38   18   23 1
    39   20   21 1
    40   20   22 1
    41   21   43 1
    42   21   44 1
    43   21   45 1
    44   22   46 1
    45   23   47 1
    46   24   48 1
    47   24   49 1
    48   24   50 1
    49   25   29 2
    50   25   26 1
    51   26   27 2
    52   26   51 1
    53   27   28 1
    54   27   52 1
    55   28   29 1
    56   29   53 1
@<TRIPOS>MOLECULE
ZINC39315977
   34    36     0     0     0
SMALL
USER_CHARGES

@<TRIPOS>ATOM
      1 C1         -0.0186    1.5236    0.0104 C.3       1 <0>        -0.1213
      2 C2          1.4304    2.0253   -0.0007 C.3       1 <0>        -0.1198
      3 C3          2.0663    1.6902    1.3470 C.3       1 <0>        -0.0708
      4 C4          1.8570    0.2375    1.6852 C.2       1 <0>         0.2248
      5 C5          0.9126   -0.5268    1.0796 C.2       1 <0>        -0.2837
      6 C6          0.7772   -1.8773    1.4668 C.2       1 <0>         0.5445
      7 O1         -0.0678   -2.5876    0.9470 O.2       1 <0>        -0.5302
      8 N1          1.5939   -2.3722    2.4182 N.am      1 <0>        -0.6474
      9 H1          1.5164   -3.2985    2.6954 H         1 <0>         0.4131
     10 C7          2.5281   -1.5625    2.9863 C.2       1 <0>         0.6395
     11 N2          2.6435   -0.3036    2.6237 N.2       1 <0>        -0.5836
     12 N3          3.3604   -2.0657    3.9496 N.pl3     1 <0>        -0.6886
     13 C8          4.3702   -1.2034    4.5685 C.3       1 <0>         0.3897
     14 H2          4.8856   -0.6039    3.8182 H         1 <0>         0.1746
     15 N4          5.3272   -1.9930    5.3702 N.2       1 <0>        -0.4608
     16 C9          5.2502   -2.0071    6.6240 C.2       1 <0>         0.1439
     17 C10         4.1539   -1.1941    7.2983 C.3       1 <0>        -0.0884
     18 S1          3.6239   -0.1358    5.8778 S.3       1 <0>        -0.2659
     19 C11         6.2238   -2.8133    7.4444 C.3       1 <0>         0.5268
     20 F1          7.1243   -3.4634    6.5937 F         1 <0>        -0.1528
     21 F2          6.9261   -1.9620    8.3042 F         1 <0>        -0.1568
     22 F3          5.5247   -3.7631    8.1971 F         1 <0>        -0.1586
     23 C12         0.0021   -0.0041    0.0020 C.3       1 <0>        -0.0462
     24 H3         -0.5236    1.8791    0.9086 H         1 <0>         0.0665
     25 H4         -0.5406    1.8887   -0.8741 H         1 <0>         0.0728
     26 H5          1.9834    1.5324   -0.8003 H         1 <0>         0.0689
     27 H6          1.4442    3.1042   -0.1551 H         1 <0>         0.0763
     28 H7          3.1353    1.8982    1.3016 H         1 <0>         0.0901
     29 H8          1.6131    2.3085    2.1219 H         1 <0>         0.0921
     30 H9          3.2816   -2.9932    4.2225 H         1 <0>         0.4175
     31 H10         3.3406   -1.8334    7.6415 H         1 <0>         0.1386
     32 H11         4.5525   -0.5914    8.1144 H         1 <0>         0.1487
     33 H12        -1.0075   -0.3781    0.1720 H         1 <0>         0.0755
     34 H13         0.3555   -0.3534   -0.9681 H         1 <0>         0.0711
@<TRIPOS>BOND
     1    1   23 1
     2    1    2 1
     3    1   24 1
     4    1   25 1
     5    2    3 1
     6    2   26 1
     7    2   27 1
     8    3    4 1
     9    3   28 1
    10    3   29 1
    11    4   11 1
    12    4    5 2
    13    5    6 1
    14    5   23 1
    15    6    7 2
    16    6    8 am
    17    8    9 1
    18    8   10 1
    19   10   11 2
    20   10   12 1
    21   12   13 1
    22   12   30 1
    23   13   14 1
    24   13   18 1
    25   13   15 1
    26   15   16 2
    27   16   17 1
    28   16   19 1
    29   17   18 1
    30   17   31 1
    31   17   32 1
    32   19   20 1
    33   19   21 1
    34   19   22 1
    35   23   33 1
    36   23   34 1
@<TRIPOS>MOLECULE
ZINC54982232
   46    49     0     0     0
SMALL
NO_CHARGES

@<TRIPOS>ATOM
      1 C1         -0.0178    1.4608    0.0101 C.3       1 <0>         0.1201
      2 N1          0.0021   -0.0041    0.0020 N.am      1 <0>        -0.4420
      3 C2         -1.1591   -0.6880    0.0038 C.2       1 <0>         0.5328
      4 O1         -2.2244   -0.0904    0.0121 O.2       1 <0>        -0.5864
      5 C3         -1.1366   -2.0904   -0.0044 C.2       1 <0>        -0.3154
      6 C4          0.0834   -2.7418   -0.0142 C.2       1 <0>         0.1252
      7 C5          1.2736   -1.9836   -0.0157 C.2       1 <0>         0.0249
      8 N2          1.2260   -0.6809   -0.0133 N.2       1 <0>        -0.3096
      9 N3          0.1366   -4.1256   -0.0220 N.pl3     1 <0>        -0.7105
     10 C6          1.4293   -4.8071   -0.0323 C.3       1 <0>         0.1620
     11 C7          1.9376   -4.9693   -1.4667 C.3       1 <0>        -0.1209
     12 H1          2.0641   -3.9659   -1.9025 H         1 <0>         0.1055
     13 C8          0.9204   -5.7369   -2.2994 C.3       1 <0>        -0.1175
     14 C9          0.5534   -7.0825   -1.6954 C.3       1 <0>        -0.1245
     15 C10         0.2642   -7.0154   -0.2047 C.3       1 <0>        -0.1233
     16 C11         1.3000   -6.2095    0.5667 C.3       1 <0>        -0.1064
     17 H2          0.9618   -6.1084    1.6099 H         1 <0>         0.1054
     18 C12         2.6612   -6.8928    0.5621 C.3       1 <0>        -0.0130
     19 N4          3.2660   -6.9535   -0.7649 N.4       1 <0>        -0.3283
     20 C13         3.2920   -5.6659   -1.4515 C.3       1 <0>        -0.0157
     21 C14         4.6522   -7.4151   -0.6118 C.3       1 <0>        -0.0914
     22 C15         5.1045   -8.5922   -1.4783 C.3       1 <0>        -0.1676
     23 C16         4.8730   -8.7904    0.0211 C.3       1 <0>        -0.1668
     24 Cl1        -2.6182   -2.9951   -0.0017 Cl        1 <0>        -0.0876
     25 H3          1.0048    1.8381    0.0023 H         1 <0>         0.0775
     26 H4         -0.5450    1.8219   -0.8730 H         1 <0>         0.0574
     27 H5         -0.5280    1.8123    0.9069 H         1 <0>         0.0576
     28 H6          2.2297   -2.4857   -0.0230 H         1 <0>         0.1516
     29 H7         -0.6842   -4.6425   -0.0206 H         1 <0>         0.3978
     30 H8          2.1521   -4.2291    0.5469 H         1 <0>         0.0860
     31 H9          0.0143   -5.1327   -2.4206 H         1 <0>         0.0832
     32 H10         1.3357   -5.8996   -3.3044 H         1 <0>         0.0657
     33 H11        -0.3711   -7.4327   -2.1987 H         1 <0>         0.0719
     34 H12         1.3064   -7.8324   -1.9172 H         1 <0>         0.0502
     35 H13        -0.7301   -6.5829   -0.0458 H         1 <0>         0.0786
     36 H14         0.2387   -8.0378    0.1988 H         1 <0>         0.0705
     37 H15         3.3352   -6.3525    1.2381 H         1 <0>         0.1106
     38 H16         2.5512   -7.9122    0.9519 H         1 <0>         0.1046
     39 H17         3.6273   -5.8185   -2.4848 H         1 <0>         0.1076
     40 H18         4.0245   -5.0135   -0.9605 H         1 <0>         0.1082
     41 H19         5.3852   -6.6380   -0.3956 H         1 <0>         0.1538
     42 H20         4.3735   -9.0242   -2.1618 H         1 <0>         0.1085
     43 H21         6.1354   -8.5897   -1.8323 H         1 <0>         0.1185
     44 H22         5.7516   -8.9183    0.6534 H         1 <0>         0.1186
     45 H23         3.9897   -9.3528    0.3239 H         1 <0>         0.1087
     46 H24         2.7983   -7.6430   -1.3314 H         1 <0>         0.3640
@<TRIPOS>BOND
     1    1    2 1
     2    1   25 1
     3    1   26 1
     4    1   27 1
     5    2    8 1
     6    2    3 am
     7    3    4 2
     8    3    5 1
     9    5    6 2
    10    5   24 1
    11    6    7 1
    12    6    9 1
    13    7    8 2
    14    7   28 1
    15    9   10 1
    16    9   29 1
    17   10   16 1
    18   10   11 1
    19   10   30 1
    20   11   12 1
    21   11   20 1
    22   11   13 1
    23   13   14 1
    24   13   31 1
    25   13   32 1
    26   14   15 1
    27   14   33 1
    28   14   34 1
    29   15   16 1
    30   15   35 1
    31   15   36 1
    32   16   17 1
    33   16   18 1
    34   18   19 1
    35   18   37 1
    36   18   38 1
    37   19   20 1
    38   19   21 1
    39   19   46 1
    40   20   39 1
    41   20   40 1
    42   21   23 1
    43   21   22 1
    44   21   41 1
    45   22   23 1
    46   22   42 1
    47   22   43 1
    48   23   44 1
    49   23   45 1
@<TRIPOS>MOLECULE
ZINC40268086
   38    41     0     0     0
SMALL
USER_CHARGES

@<TRIPOS>ATOM
      1 C1         -0.0167    1.3784    0.0096 C.ar      1 <0>        -0.0856
      2 C2          1.1695    2.0865    0.0021 C.ar      1 <0>        -0.1421
      3 C3          2.3802    1.4093   -0.0131 C.ar      1 <0>         0.1074
      4 C4          2.3963    0.0221   -0.0206 C.ar      1 <0>        -0.1419
      5 C5          1.2074   -0.6814   -0.0130 C.ar      1 <0>        -0.0957
      6 C6          0.0021   -0.0041    0.0020 C.ar      1 <0>        -0.0887
      7 C7         -1.2934   -0.7740    0.0107 C.3       1 <0>         0.0439
      8 H1         -2.1331   -0.0792    0.0227 H         1 <0>         0.1163
      9 C8         -1.3750   -1.6598   -1.2357 C.3       1 <0>        -0.1327
     10 C9         -0.4964   -2.8710   -1.1074 C.2       1 <0>         0.5353
     11 O1          0.0787   -3.2862   -2.0914 O.2       1 <0>        -0.5088
     12 N1         -0.3259   -3.5126    0.0694 N.am      1 <0>        -0.6450
     13 C10        -0.8854   -2.9415    1.2135 C.2       1 <0>         0.2167
     14 C11        -1.3495   -1.6593    1.2298 C.2       1 <0>        -0.0093
     15 N2         -1.8161   -1.4023    2.4498 N.2       1 <0>        -0.4359
     16 C12        -1.6694   -2.4633    3.2017 C.2       1 <0>         0.1937
     17 N3         -1.0874   -3.4533    2.4567 N.pl3     1 <0>        -0.4153
     18 C13        -0.7621   -4.7461    2.8917 C.ar      1 <0>         0.1742
     19 C14        -1.1527   -5.8491    2.1454 C.ar      1 <0>        -0.1697
     20 C15        -0.8310   -7.1240    2.5761 C.ar      1 <0>         0.1592
     21 C16        -0.1201   -7.2998    3.7512 C.ar      1 <0>        -0.1827
     22 C17         0.2705   -6.2005    4.4971 C.ar      1 <0>         0.1588
     23 C18        -0.0442   -4.9239    4.0662 C.ar      1 <0>        -0.1584
     24 F1          0.9636   -6.3744    5.6436 F         1 <0>        -0.1163
     25 F2         -1.2110   -8.1980    1.8499 F         1 <0>        -0.1166
     26 O2          3.5484    2.1036   -0.0209 O.3       1 <0>        -0.4994
     27 H2         -0.9594    1.9052    0.0259 H         1 <0>         0.1325
     28 H3          1.1543    3.1664    0.0076 H         1 <0>         0.1316
     29 H4          3.3375   -0.5074   -0.0328 H         1 <0>         0.1271
     30 H5          1.2194   -1.7613   -0.0189 H         1 <0>         0.1173
     31 H6         -2.4068   -1.9815   -1.3774 H         1 <0>         0.1150
     32 H7         -1.0606   -1.0820   -2.1048 H         1 <0>         0.1213
     33 H8          0.1700   -4.3450    0.1176 H         1 <0>         0.4112
     34 H9         -1.9597   -2.5443    4.2389 H         1 <0>         0.2223
     35 H10        -1.7078   -5.7124    1.2291 H         1 <0>         0.1505
     36 H11         0.1298   -8.2955    4.0867 H         1 <0>         0.1614
     37 H12         0.2647   -4.0665    4.6457 H         1 <0>         0.1571
     38 H13         3.8951    2.3001    0.8601 H         1 <0>         0.3915
@<TRIPOS>BOND
     1    1    6 ar
     2    1    2 ar
     3    1   27 1
     4    2    3 ar
     5    2   28 1
     6    3    4 ar
     7    3   26 1
     8    4    5 ar
     9    4   29 1
    10    5    6 ar
    11    5   30 1
    12    6    7 1
    13    7    8 1
    14    7   14 1
    15    7    9 1
    16    9   10 1
    17    9   31 1
    18    9   32 1
    19   10   11 2
    20   10   12 am
    21   12   13 1
    22   12   33 1
    23   13   17 1
    24   13   14 2
    25   14   15 1
    26   15   16 2
    27   16   17 1
    28   16   34 1
    29   17   18 1
    30   18   23 ar
    31   18   19 ar
    32   19   20 ar
    33   19   35 1
    34   20   21 ar
    35   20   25 1
    36   21   22 ar
    37   21   36 1
    38   22   23 ar
    39   22   24 1
    40   23   37 1
    41   26   38 1
@<TRIPOS>MOLECULE
ZINC05135358
   47    49     0     0     0
SMALL
USER_CHARGES
1-[5-(2,6-dimethyl-1-piperidyl)-1,3,4-thiadiazol-2-yl]-3-[2-(trifluoromethyl)phenyl]-urea
@<TRIPOS>ATOM
      1 C1          2.4647    3.3962   -2.4881 C.3       1 <0>        -0.1888
      2 C2          2.0599    4.0784   -1.1798 C.3       1 <0>         0.0807
      3 H1          0.9795    4.2223   -1.1646 H         1 <0>         0.0937
      4 C3          2.7568    5.4369   -1.0763 C.3       1 <0>        -0.1114
      5 C4          4.2737    5.2284   -1.0778 C.3       1 <0>        -0.1288
      6 C5          4.6556    4.3080    0.0848 C.3       1 <0>        -0.1135
      7 C6          3.9037    2.9821   -0.0524 C.3       1 <0>         0.0871
      8 H2          4.1835    2.5014   -0.9898 H         1 <0>         0.0702
      9 N1          2.4572    3.2353   -0.0450 N.pl3     1 <0>        -0.4197
     10 C7          1.7433    2.0436   -0.0362 C.2       1 <0>         0.2817
     11 N2          2.1890    0.8018   -0.0344 N.2       1 <0>        -0.3194
     12 N3          1.2968   -0.2453   -0.0254 N.2       1 <0>        -0.2808
     13 C8          0.0011   -0.0035   -0.0187 C.2       1 <0>         0.3118
     14 S1         -0.0238    1.7826   -0.0250 S.3       1 <0>        -0.0081
     15 N4         -1.0642   -0.9010   -0.0086 N.am      1 <0>        -0.6179
     16 C9         -0.8275   -2.2278   -0.0054 C.2       1 <0>         0.7075
     17 O1          0.3159   -2.6414   -0.0113 O.2       1 <0>        -0.4991
     18 N5         -1.8582   -3.0962    0.0043 N.am      1 <0>        -0.6773
     19 C10        -1.6169   -4.4697   -0.1111 C.ar      1 <0>         0.2177
     20 C11        -0.4600   -4.9234   -0.7314 C.ar      1 <0>        -0.1324
     21 C12        -0.2246   -6.2795   -0.8433 C.ar      1 <0>        -0.0608
     22 C13        -1.1395   -7.1856   -0.3385 C.ar      1 <0>        -0.1370
     23 C14        -2.2921   -6.7372    0.2795 C.ar      1 <0>        -0.0502
     24 C15        -2.5309   -5.3819    0.3993 C.ar      1 <0>        -0.2190
     25 C16        -3.7845   -4.8940    1.0786 C.3       1 <0>         0.5087
     26 F1         -4.5409   -5.9909    1.5051 F         1 <0>        -0.1702
     27 F2         -3.4403   -4.1071    2.1830 F         1 <0>        -0.1743
     28 F3         -4.5359   -4.1310    0.1784 F         1 <0>        -0.1799
     29 C17         4.2669    2.0665    1.1183 C.3       1 <0>        -0.1715
     30 H3          1.9677    2.4289   -2.5624 H         1 <0>         0.0548
     31 H4          2.1698    4.0218   -3.3305 H         1 <0>         0.0766
     32 H5          3.5450    3.2517   -2.5034 H         1 <0>         0.0726
     33 H6          2.4581    5.9295   -0.1510 H         1 <0>         0.0782
     34 H7          2.4738    6.0568   -1.9270 H         1 <0>         0.0808
     35 H8          4.7737    6.1898   -0.9606 H         1 <0>         0.0732
     36 H9          4.5786    4.7716   -2.0193 H         1 <0>         0.0673
     37 H10         4.3868    4.7828    1.0284 H         1 <0>         0.0763
     38 H11         5.7293    4.1213    0.0636 H         1 <0>         0.0796
     39 H12        -1.9763   -0.5711   -0.0039 H         1 <0>         0.4275
     40 H13        -2.7672   -2.7691    0.0914 H         1 <0>         0.4114
     41 H14         0.2546   -4.2164   -1.1261 H         1 <0>         0.1599
     42 H15         0.6750   -6.6329   -1.3252 H         1 <0>         0.1391
     43 H16        -0.9533   -8.2457   -0.4276 H         1 <0>         0.1385
     44 H17        -3.0048   -7.4473    0.6723 H         1 <0>         0.1442
     45 H18         3.7322    1.1218    1.0202 H         1 <0>         0.0961
     46 H19         5.3406    1.8785    1.1130 H         1 <0>         0.0669
     47 H20         3.9869    2.5469    2.0558 H         1 <0>         0.0583
@<TRIPOS>BOND
     1    1    2 1
     2    1   30 1
     3    1   31 1
     4    1   32 1
     5    2    3 1
     6    2    9 1
     7    2    4 1
     8    4    5 1
     9    4   33 1
    10    4   34 1
    11    5    6 1
    12    5   35 1
    13    5   36 1
    14    6    7 1
    15    6   37 1
    16    6   38 1
    17    7    8 1
    18    7    9 1
    19    7   29 1
    20    9   10 1
    21   10   14 1
    22   10   11 2
    23   11   12 1
    24   12   13 2
    25   13   14 1
    26   13   15 1
    27   15   16 am
    28   15   39 1
    29   16   17 2
    30   16   18 am
    31   18   19 1
    32   18   40 1
    33   19   24 ar
    34   19   20 ar
    35   20   21 ar
    36   20   41 1
    37   21   22 ar
    38   21   42 1
    39   22   23 ar
    40   22   43 1
    41   23   24 ar
    42   23   44 1
    43   24   25 1
    44   25   26 1
    45   25   27 1
    46   25   28 1
    47   29   45 1
    48   29   46 1
    49   29   47 1
@<TRIPOS>MOLECULE
ZINC08962202
   45    47     0     0     0
SMALL
USER_CHARGES
3-chloro-N-(4-ethyl-6-oxo-2-oxa-5-azabicyclo[5.4.0]undeca-8,10,12-trien-9-yl)-4-methyl-benzenesulfonamide
@<TRIPOS>ATOM
      1 C1         -3.1457    4.8521   -6.9293 C.3       1 <0>        -0.1485
      2 C2         -2.9926    3.4870   -6.2556 C.3       1 <0>        -0.1770
      3 C3         -3.9522    2.4875   -6.9045 C.3       1 <0>         0.1033
      4 H1         -3.6782    2.3550   -7.9512 H         1 <0>         0.1118
      5 C4         -3.8445    1.1497   -6.1850 C.3       1 <0>         0.0496
      6 O1         -4.4964    1.1805   -4.9213 O.3       1 <0>        -0.3188
      7 C5         -4.2810    2.2686   -4.1383 C.ar      1 <0>         0.1377
      8 C6         -3.4666    2.1917   -3.0213 C.ar      1 <0>        -0.1271
      9 C7         -3.2488    3.3140   -2.2466 C.ar      1 <0>        -0.0755
     10 C8         -3.8525    4.5240   -2.5733 C.ar      1 <0>         0.1121
     11 C9         -4.6713    4.6155   -3.6870 C.ar      1 <0>        -0.0486
     12 C10        -4.8909    3.4872   -4.4749 C.ar      1 <0>        -0.1376
     13 C11        -5.7620    3.5463   -5.6642 C.2       1 <0>         0.5739
     14 O2         -6.8596    4.0659   -5.6022 O.2       1 <0>        -0.5129
     15 N1         -5.3172    3.0108   -6.8262 N.am      1 <0>        -0.7166
     16 N2         -3.6274    5.6535   -1.7779 N.pl3     1 <0>        -1.0602
     17 S1         -4.8084    6.1900   -0.7485 S.o2      1 <0>         2.6877
     18 O3         -5.9989    6.2974   -1.5170 O.2       1 <0>        -0.9368
     19 O4         -4.2585    7.2908   -0.0379 O.2       1 <0>        -0.9448
     20 C12        -5.0865    4.9147    0.4352 C.ar      1 <0>        -0.6741
     21 C13        -4.2866    4.8291    1.5597 C.ar      1 <0>        -0.0101
     22 C14        -4.5038    3.8288    2.4884 C.ar      1 <0>        -0.1299
     23 C15        -5.5210    2.9132    2.2935 C.ar      1 <0>        -0.0149
     24 C16        -6.3216    2.9983    1.1686 C.ar      1 <0>        -0.0604
     25 C17        -6.1003    3.9969    0.2365 C.ar      1 <0>        -0.0015
     26 Cl1        -7.5988    1.8486    0.9227 Cl        1 <0>        -0.0504
     27 C18        -5.7574    1.8223    3.3059 C.3       1 <0>        -0.1320
     28 H2         -2.4621    5.5642   -6.4669 H         1 <0>         0.0596
     29 H3         -2.9133    4.7617   -7.9904 H         1 <0>         0.0573
     30 H4         -4.1708    5.2030   -6.8104 H         1 <0>         0.0550
     31 H5         -3.2249    3.5773   -5.1945 H         1 <0>         0.0945
     32 H6         -1.9674    3.1361   -6.3744 H         1 <0>         0.0813
     33 H7         -2.7918    0.9092   -6.0365 H         1 <0>         0.0755
     34 H8         -4.3012    0.3760   -6.8021 H         1 <0>         0.1101
     35 H9         -2.9979    1.2550   -2.7583 H         1 <0>         0.1463
     36 H10        -2.6088    3.2509   -1.3789 H         1 <0>         0.1423
     37 H11        -5.1365    5.5558   -3.9434 H         1 <0>         0.1503
     38 H12        -5.8993    2.9741   -7.6012 H         1 <0>         0.4101
     39 H13        -2.7796    6.1220   -1.8296 H         1 <0>         0.4287
     40 H14        -3.4916    5.5440    1.7123 H         1 <0>         0.1468
     41 H15        -3.8785    3.7622    3.3665 H         1 <0>         0.1444
     42 H16        -6.7224    4.0613   -0.6440 H         1 <0>         0.1523
     43 H17        -5.1648    0.9465    3.0414 H         1 <0>         0.0865
     44 H18        -5.4637    2.1745    4.2948 H         1 <0>         0.0796
     45 H19        -6.8145    1.5568    3.3139 H         1 <0>         0.0810
@<TRIPOS>BOND
     1    1    2 1
     2    1   28 1
     3    1   29 1
     4    1   30 1
     5    2    3 1
     6    2   31 1
     7    2   32 1
     8    3    4 1
     9    3   15 1
    10    3    5 1
    11    5    6 1
    12    5   33 1
    13    5   34 1
    14    6    7 1
    15    7   12 ar
    16    7    8 ar
    17    8    9 ar
    18    8   35 1
    19    9   10 ar
    20    9   36 1
    21   10   11 ar
    22   10   16 1
    23   11   12 ar
    24   11   37 1
    25   12   13 1
    26   13   14 2
    27   13   15 am
    28   15   38 1
    29   16   17 1
    30   16   39 1
    31   17   18 2
    32   17   19 2
    33   17   20 1
    34   20   25 ar
    35   20   21 ar
    36   21   22 ar
    37   21   40 1
    38   22   23 ar
    39   22   41 1
    40   23   24 ar
    41   23   27 1
    42   24   25 ar
    43   24   26 1
    44   25   42 1
    45   27   43 1
    46   27   44 1
    47   27   45 1
@<TRIPOS>MOLECULE
ZINC33810525
   54    57     0     0     0
SMALL
USER_CHARGES
4-[(5S)-8,8-dimethyl-4,6-dioxo-2-propylsulfanyl-5,7,9,10-tetrahydro-1H-pyrimido[4,5-b]quinolin-5-yl]benzonitrile
@<TRIPOS>ATOM
      1 C1         -8.6446    2.7674   -0.8202 C.3       1 <0>        -0.1525
      2 C2         -7.6231    1.6432   -1.0039 C.3       1 <0>        -0.1066
      3 C3         -6.2313    2.1516   -0.6230 C.3       1 <0>        -0.1602
      4 S1         -5.0228    0.8217   -0.8403 S.3       1 <0>         0.0521
      5 C4         -3.5538    1.6592   -0.3452 C.2       1 <0>         0.3803
      6 N1         -2.3657    0.9923   -0.3602 N.2       1 <0>        -0.5387
      7 C5         -1.2151    1.6306    0.0167 C.2       1 <0>         0.4261
      8 C6         -1.2744    2.9305    0.4176 C.2       1 <0>        -0.3086
      9 C7         -2.5247    3.5863    0.4172 C.2       1 <0>         0.5425
     10 O1         -2.6056    4.7557    0.7642 O.2       1 <0>        -0.5210
     11 N2         -3.6234    2.9187    0.0332 N.am      1 <0>        -0.6326
     12 C8         -0.0381    3.6624    0.8496 C.3       1 <0>         0.0946
     13 H1         -0.0588    4.6660    0.3997 H         1 <0>         0.0964
     14 C9          1.2079    2.9537    0.3825 C.2       1 <0>        -0.2788
     15 C10         1.1686    1.6597   -0.0002 C.2       1 <0>         0.2355
     16 N3         -0.0111    0.9658    0.0074 N.pl3     1 <0>        -0.6345
     17 C11         2.4199    0.9414   -0.4419 C.3       1 <0>        -0.0907
     18 C12         3.3770    1.9360   -1.1028 C.3       1 <0>        -0.0510
     19 C13         3.6974    3.0444   -0.0947 C.3       1 <0>        -0.1611
     20 C14         2.4122    3.6786    0.3616 C.2       1 <0>         0.4054
     21 O2          2.4149    4.8399    0.7195 O.2       1 <0>        -0.4647
     22 C15         2.7137    2.5429   -2.3408 C.3       1 <0>        -0.1541
     23 C16         4.6676    1.2217   -1.5091 C.3       1 <0>        -0.1436
     24 C17        -0.0199    3.7534    2.3537 C.ar      1 <0>        -0.0279
     25 C18         0.0145    2.5973    3.1131 C.ar      1 <0>        -0.1139
     26 C19         0.0362    2.6734    4.4904 C.ar      1 <0>        -0.0738
     27 C20         0.0122    3.9205    5.1179 C.ar      1 <0>        -0.0372
     28 C21        -0.0278    5.0830    4.3454 C.ar      1 <0>        -0.0692
     29 C22        -0.0434    4.9925    2.9690 C.ar      1 <0>        -0.0903
     30 C23         0.0281    4.0069    6.5472 C.1       1 <0>         0.2557
     31 N4          0.0407    4.0755    7.6810 N.1       1 <0>        -0.4208
     32 H2         -9.6453    2.4019   -1.0941 H         1 <0>         0.0687
     33 H3         -8.3752    3.6166   -1.4653 H         1 <0>         0.0610
     34 H4         -8.6477    3.0919    0.2309 H         1 <0>         0.0611
     35 H5         -7.8925    0.7940   -0.3588 H         1 <0>         0.0813
     36 H6         -7.6200    1.3187   -2.0549 H         1 <0>         0.0813
     37 H7         -5.9619    3.0009   -1.2681 H         1 <0>         0.1034
     38 H8         -6.2344    2.4761    0.4280 H         1 <0>         0.1035
     39 H9          0.0099   -0.1340    0.0060 H         1 <0>         0.4496
     40 H10         2.9103    0.4880    0.4321 H         1 <0>         0.1039
     41 H11         2.1555    0.1542   -1.1633 H         1 <0>         0.0952
     42 H12         4.2251    2.6133    0.7688 H         1 <0>         0.1026
     43 H13         4.3353    3.8021   -0.5732 H         1 <0>         0.0990
     44 H14         3.4039    3.2572   -2.8135 H         1 <0>         0.0644
     45 H15         1.7921    3.0650   -2.0442 H         1 <0>         0.0589
     46 H16         2.4683    1.7428   -3.0547 H         1 <0>         0.0614
     47 H17         5.3512    1.9413   -1.9833 H         1 <0>         0.0653
     48 H18         4.4325    0.4160   -2.2201 H         1 <0>         0.0624
     49 H19         5.1469    0.7944   -0.6160 H         1 <0>         0.0620
     50 H20         0.0282    1.6333    2.6265 H         1 <0>         0.1206
     51 H21         0.0672    1.7703    5.0819 H         1 <0>         0.1292
     52 H22        -0.0462    6.0508    4.8244 H         1 <0>         0.1323
     53 H23        -0.0743    5.8908    2.3703 H         1 <0>         0.1348
     54 H24        -4.5926    3.4389    0.0376 H         1 <0>         0.4417
@<TRIPOS>BOND
     1    1    2 1
     2    1   32 1
     3    1   33 1
     4    1   34 1
     5    2    3 1
     6    2   35 1
     7    2   36 1
     8    3    4 1
     9    3   37 1
    10    3   38 1
    11    4    5 1
    12    5   11 1
    13    5    6 2
    14    6    7 1
    15    7   16 1
    16    7    8 2
    17    8    9 1
    18    8   12 1
    19    9   10 2
    20    9   11 am
    21   11   54 1
    22   12   13 1
    23   12   14 1
    24   12   24 1
    25   14   20 1
    26   14   15 2
    27   15   16 1
    28   15   17 1
    29   16   39 1
    30   17   18 1
    31   17   40 1
    32   17   41 1
    33   18   19 1
    34   18   22 1
    35   18   23 1
    36   19   20 1
    37   19   42 1
    38   19   43 1
    39   20   21 2
    40   22   44 1
    41   22   45 1
    42   22   46 1
    43   23   47 1
    44   23   48 1
    45   23   49 1
    46   24   29 ar
    47   24   25 ar
    48   25   26 ar
    49   25   50 1
    50   26   27 ar
    51   26   51 1
    52   27   28 ar
    53   27   30 1
    54   28   29 ar
    55   28   52 1
    56   29   53 1
    57   30   31 3
@<TRIPOS>MOLECULE
ZINC38704650
   55    59     0     0     0
SMALL
USER_CHARGES

@<TRIPOS>ATOM
      1 C1         -0.8832    1.7350   -0.0707 C.3       1 <0>        -0.1180
      2 C2         -0.5980    0.2553   -0.0572 C.ar      1 <0>        -0.0547
      3 C3          0.5391   -0.2327   -0.6767 C.ar      1 <0>        -0.1312
      4 C4          0.8079   -1.5865   -0.6691 C.ar      1 <0>        -0.0340
      5 C5         -0.0674   -2.4653   -0.0361 C.ar      1 <0>        -0.0450
      6 C6         -1.2151   -1.9696    0.5888 C.ar      1 <0>         0.1392
      7 C7         -1.4702   -0.6076    0.5786 C.ar      1 <0>        -0.1550
      8 O1         -2.0748   -2.8196    1.2088 O.3       1 <0>        -0.4885
      9 C8          0.2168   -3.9219   -0.0255 C.2       1 <0>         0.1302
     10 C9          0.2091   -4.7590    1.0954 C.2       1 <0>        -0.1610
     11 C10         0.5284   -6.0189    0.6266 C.2       1 <0>        -0.0644
     12 N1          0.7095   -5.8878   -0.7210 N.pl3     1 <0>        -0.3364
     13 H1          0.9435   -6.6103   -1.3245 H         1 <0>         0.4522
     14 N2          0.5176   -4.6660   -1.0716 N.2       1 <0>        -0.2444
     15 C11         0.5365   -6.9503    1.7601 C.2       1 <0>         0.5986
     16 O2          0.7819   -8.1389    1.6804 O.2       1 <0>        -0.5215
     17 N3          0.2341   -6.3035    2.9002 N.am      1 <0>        -0.5873
     18 C12         0.0065   -4.8882    2.5803 C.3       1 <0>         0.2503
     19 H2         -1.0113   -4.6032    2.8462 H         1 <0>         0.1028
     20 C13         0.9973   -4.0234    3.3161 C.ar      1 <0>        -0.0752
     21 C14         2.3506   -4.1586    3.0685 C.ar      1 <0>        -0.0514
     22 C15         3.2594   -3.3653    3.7435 C.ar      1 <0>        -0.1110
     23 C16         2.8149   -2.4364    4.6657 C.ar      1 <0>        -0.1109
     24 C17         1.4616   -2.3006    4.9127 C.ar      1 <0>        -0.1199
     25 C18         0.5525   -3.0909    4.2345 C.ar      1 <0>        -0.1035
     26 C19         0.1464   -6.9072    4.2321 C.3       1 <0>         0.1324
     27 C20         1.5451   -6.9934    4.8461 C.3       1 <0>         0.0588
     28 H3          2.2111   -7.5345    4.1740 H         1 <0>         0.0825
     29 C21         1.4754   -7.7162    6.2085 C.3       1 <0>        -0.1466
     30 C22         2.4832   -6.9024    7.0653 C.3       1 <0>        -0.1553
     31 C23         2.2801   -5.4797    6.4861 C.3       1 <0>         0.0506
     32 O3          2.0557   -5.6755    5.0789 O.3       1 <0>        -0.3492
     33 C24         2.0473   -2.1131   -1.3455 C.3       1 <0>        -0.1261
     34 H4         -0.4233    2.2016    0.8004 H         1 <0>         0.0744
     35 H5         -0.4719    2.1760   -0.9787 H         1 <0>         0.0698
     36 H6         -1.9606    1.8976   -0.0436 H         1 <0>         0.0689
     37 H7          1.2183    0.4481   -1.1681 H         1 <0>         0.1283
     38 H8         -2.3537   -0.2205    1.0646 H         1 <0>         0.1319
     39 H9         -1.9253   -2.9054    2.1603 H         1 <0>         0.3835
     40 H10         2.6978   -4.8843    2.3480 H         1 <0>         0.1037
     41 H11         4.3167   -3.4714    3.5505 H         1 <0>         0.1139
     42 H12         3.5250   -1.8171    5.1936 H         1 <0>         0.1153
     43 H13         1.1143   -1.5751    5.6334 H         1 <0>         0.1171
     44 H14        -0.5051   -2.9822    4.4247 H         1 <0>         0.1146
     45 H15        -0.4922   -6.2937    4.8677 H         1 <0>         0.0930
     46 H16        -0.2767   -7.9083    4.1501 H         1 <0>         0.0961
     47 H17         0.4715   -7.6558    6.6287 H         1 <0>         0.0792
     48 H18         1.7958   -8.7538    6.1139 H         1 <0>         0.0835
     49 H19         2.2186   -6.9378    8.1221 H         1 <0>         0.0817
     50 H20         3.5041   -7.2494    6.9061 H         1 <0>         0.0767
     51 H21         1.4135   -5.0043    6.9455 H         1 <0>         0.0571
     52 H22         3.1730   -4.8753    6.6455 H         1 <0>         0.0808
     53 H23         2.8711   -2.1309   -0.6319 H         1 <0>         0.0703
     54 H24         1.8608   -3.1231   -1.7104 H         1 <0>         0.0828
     55 H25         2.3066   -1.4662   -2.1836 H         1 <0>         0.0698
@<TRIPOS>BOND
     1    1    2 1
     2    1   34 1
     3    1   35 1
     4    1   36 1
     5    2    7 ar
     6    2    3 ar
     7    3    4 ar
     8    3   37 1
     9    4    5 ar
    10    4   33 1
    11    5    6 ar
    12    5    9 1
    13    6    7 ar
    14    6    8 1
    15    7   38 1
    16    8   39 1
    17    9   14 2
    18    9   10 1
    19   10   18 1
    20   10   11 2
    21   11   12 1
    22   11   15 1
    23   12   13 1
    24   12   14 1
    25   15   16 2
    26   15   17 am
    27   17   18 1
    28   17   26 1
    29   18   19 1
    30   18   20 1
    31   20   25 ar
    32   20   21 ar
    33   21   22 ar
    34   21   40 1
    35   22   23 ar
    36   22   41 1
    37   23   24 ar
    38   23   42 1
    39   24   25 ar
    40   24   43 1
    41   25   44 1
    42   26   27 1
    43   26   45 1
    44   26   46 1
    45   27   28 1
    46   27   32 1
    47   27   29 1
    48   29   30 1
    49   29   47 1
    50   29   48 1
    51   30   31 1
    52   30   49 1
    53   30   50 1
    54   31   32 1
    55   31   51 1
    56   31   52 1
    57   33   53 1
    58   33   54 1
    59   33   55 1
@<TRIPOS>MOLECULE
ZINC57524547
   53    56     0     0     0
SMALL
USER_CHARGES

@<TRIPOS>ATOM
      1 C1          0.0119    1.5050   -0.0183 C.3       1 <0>        -0.1183
      2 C2          0.0252   -0.0020   -0.0195 C.ar      1 <0>        -0.0818
      3 C3          0.0211   -0.6922   -1.2172 C.ar      1 <0>        -0.1167
      4 C4          0.0333   -2.0745   -1.2183 C.ar      1 <0>        -0.1008
      5 C5          0.0501   -2.7665   -0.0217 C.ar      1 <0>        -0.0966
      6 C6          0.0551   -2.0763    1.1759 C.ar      1 <0>        -0.1056
      7 C7          0.0473   -0.6939    1.1770 C.ar      1 <0>        -0.1177
      8 C8          0.0624   -4.2735   -0.0229 C.3       1 <0>         0.2386
      9 H1          0.4078   -4.6332   -0.9921 H         1 <0>         0.1021
     10 C9         -1.3516   -4.7953    0.2404 C.3       1 <0>        -0.1676
     11 C10        -1.6075   -5.5003    1.5739 C.3       1 <0>        -0.1733
     12 C11        -1.5493   -6.3120    0.2782 C.3       1 <0>        -0.1803
     13 N1          0.9640   -4.7553    1.0264 N.am      1 <0>        -0.7331
     14 C12         1.5326   -5.9726    0.9198 C.2       1 <0>         0.7061
     15 O1          1.2972   -6.6709   -0.0474 O.2       1 <0>        -0.5626
     16 N2          2.3620   -6.4159    1.8851 N.am      1 <0>        -0.6851
     17 C13         2.8761   -7.7160    1.8233 C.ar      1 <0>         0.1931
     18 C14         3.0738   -8.4419    2.9915 C.ar      1 <0>        -0.1719
     19 C15         3.5807   -9.7255    2.9316 C.ar      1 <0>        -0.0596
     20 C16         3.8933  -10.2918    1.7106 C.ar      1 <0>        -0.1893
     21 C17         3.6985   -9.5711    0.5388 C.ar      1 <0>         0.2293
     22 C18         3.1834   -8.2834    0.5955 C.ar      1 <0>        -0.1530
     23 N3          4.0154  -10.1437   -0.6951 N.pl3     1 <0>        -0.9280
     24 C19         4.3724   -9.4353   -1.9375 C.3       1 <0>         0.0634
     25 C20         5.3104  -10.2931   -2.8071 C.3       1 <0>        -0.1291
     26 C21         4.6770  -11.7170   -2.8017 C.3       1 <0>        -0.5890
     27 S1          4.0752  -11.7775   -1.0649 S.o2      1 <0>         2.5558
     28 O2          5.0659  -12.3251   -0.2059 O.2       1 <0>        -0.9446
     29 O3          2.7280  -12.2271   -1.0164 O.2       1 <0>        -0.9407
     30 H2          1.0362    1.8774   -0.0317 H         1 <0>         0.0719
     31 H3         -0.5169    1.8644   -0.9011 H         1 <0>         0.0677
     32 H4         -0.4932    1.8632    0.8787 H         1 <0>         0.0674
     33 H5          0.0079   -0.1516   -2.1520 H         1 <0>         0.1247
     34 H6          0.0293   -2.6138   -2.1540 H         1 <0>         0.1256
     35 H7          0.0679   -2.6169    2.1108 H         1 <0>         0.1195
     36 H8          0.0550   -0.1546    2.1126 H         1 <0>         0.1235
     37 H9         -2.1599   -4.1925   -0.1739 H         1 <0>         0.1107
     38 H10        -0.7686   -5.5925    2.2636 H         1 <0>         0.0899
     39 H11        -2.5843   -5.3614    2.0373 H         1 <0>         0.0902
     40 H12        -2.4878   -6.7070   -0.1108 H         1 <0>         0.0892
     41 H13        -0.6720   -6.9381    0.1156 H         1 <0>         0.1205
     42 H14         1.1517   -4.1982    1.7980 H         1 <0>         0.3978
     43 H15         2.6027   -5.8337    2.6228 H         1 <0>         0.4084
     44 H16         2.8311   -8.0019    3.9475 H         1 <0>         0.1282
     45 H17         3.7334  -10.2876    3.8411 H         1 <0>         0.1350
     46 H18         4.2899  -11.2954    1.6671 H         1 <0>         0.1337
     47 H19         3.0268   -7.7226   -0.3142 H         1 <0>         0.1473
     48 H20         3.4641   -9.2156   -2.4988 H         1 <0>         0.0883
     49 H21         4.8720   -8.4997   -1.6862 H         1 <0>         0.1024
     50 H22         5.3499   -9.9000   -3.8230 H         1 <0>         0.1195
     51 H23         6.3095  -10.3214   -2.3720 H         1 <0>         0.0990
     52 H24         3.8547  -11.7886   -3.5136 H         1 <0>         0.1476
     53 H25         5.4270  -12.4861   -2.9865 H         1 <0>         0.1483
@<TRIPOS>BOND
     1    1    2 1
     2    1   30 1
     3    1   31 1
     4    1   32 1
     5    2    7 ar
     6    2    3 ar
     7    3    4 ar
     8    3   33 1
     9    4    5 ar
    10    4   34 1
    11    5    6 ar
    12    5    8 1
    13    6    7 ar
    14    6   35 1
    15    7   36 1
    16    8    9 1
    17    8   10 1
    18    8   13 1
    19   10   12 1
    20   10   11 1
    21   10   37 1
    22   11   12 1
    23   11   38 1
    24   11   39 1
    25   12   40 1
    26   12   41 1
    27   13   14 am
    28   13   42 1
    29   14   15 2
    30   14   16 am
    31   16   17 1
    32   16   43 1
    33   17   22 ar
    34   17   18 ar
    35   18   19 ar
    36   18   44 1
    37   19   20 ar
    38   19   45 1
    39   20   21 ar
    40   20   46 1
    41   21   22 ar
    42   21   23 1
    43   22   47 1
    44   23   27 1
    45   23   24 1
    46   24   25 1
    47   24   48 1
    48   24   49 1
    49   25   26 1
    50   25   50 1
    51   25   51 1
    52   26   27 1
    53   26   52 1
    54   26   53 1
    55   27   28 2
    56   27   29 2
@<TRIPOS>MOLECULE
ZINC02897257
   53    56     0     0     0
SMALL
USER_CHARGES
4-[[4-[4-[(4-carboxyphenyl)methyleneamino]phenyl]sulfanylphenyl]iminomethyl]benzoic acid
@<TRIPOS>ATOM
      1 C1        -14.7671    4.5019   -6.3397 C.ar      1 <0>        -0.0804
      2 C2        -15.4791    3.9268   -7.3607 C.ar      1 <0>        -0.0925
      3 C3        -14.8391    3.5919   -8.5574 C.ar      1 <0>        -0.0857
      4 C4        -13.4740    3.8471   -8.7159 C.ar      1 <0>        -0.0984
      5 C5        -12.7616    4.4262   -7.6975 C.ar      1 <0>        -0.0973
      6 C6        -13.4016    4.7621   -6.4995 C.ar      1 <0>        -0.1012
      7 C7        -12.6374    5.3834   -5.4053 C.2       1 <0>         0.2254
      8 N1        -13.2337    5.6961   -4.2898 N.2       1 <0>        -0.4960
      9 C8        -12.5246    6.2726   -3.2746 C.ar      1 <0>         0.0938
     10 C9        -13.0502    7.3723   -2.5889 C.ar      1 <0>        -0.0936
     11 C10       -12.3330    7.9505   -1.5659 C.ar      1 <0>        -0.0849
     12 C11       -11.0860    7.4419   -1.2138 C.ar      1 <0>        -0.1121
     13 C12       -10.5572    6.3510   -1.8979 C.ar      1 <0>        -0.1030
     14 C13       -11.2715    5.7642   -2.9182 C.ar      1 <0>        -0.1380
     15 S1        -10.1716    8.1851    0.0962 S.3       1 <0>        -0.0159
     16 C14        -8.6274    7.3368    0.0729 C.ar      1 <0>        -0.1592
     17 C15        -7.6143    7.7622   -0.7817 C.ar      1 <0>        -0.0492
     18 C16        -6.4062    7.1024   -0.8018 C.ar      1 <0>        -0.1211
     19 C17        -6.1976    6.0031    0.0373 C.ar      1 <0>         0.1325
     20 C18        -7.2197    5.5750    0.8904 C.ar      1 <0>        -0.1693
     21 C19        -8.4233    6.2432    0.9095 C.ar      1 <0>        -0.0450
     22 N2         -5.0003    5.3458    0.0195 N.2       1 <0>        -0.5034
     23 C20        -4.4212    5.0166    1.1393 C.2       1 <0>         0.2378
     24 C21        -3.1309    4.3082    1.1202 C.ar      1 <0>        -0.1071
     25 C22        -2.5087    3.9545    2.3225 C.ar      1 <0>        -0.0953
     26 C23        -1.3071    3.2943    2.3039 C.ar      1 <0>        -0.0997
     27 C24        -0.7038    2.9745    1.0842 C.ar      1 <0>        -0.0819
     28 C25        -1.3222    3.3322   -0.1172 C.ar      1 <0>        -0.0924
     29 C26        -2.5264    3.9877   -0.1002 C.ar      1 <0>        -0.0770
     30 C27         0.5904    2.2639    1.0651 C.2       1 <0>         0.4850
     31 O1          1.1306    1.9574    2.1091 O.co2     1 <0>        -0.6285
     32 C28       -15.6054    2.9679   -9.6545 C.2       1 <0>         0.4858
     33 O2        -15.0494    2.6763  -10.6945 O.co2     1 <0>        -0.6285
     34 H1        -15.2608    4.7569   -5.4136 H         1 <0>         0.1296
     35 H2        -16.5339    3.7294   -7.2389 H         1 <0>         0.1340
     36 H3        -12.9801    3.5877   -9.6407 H         1 <0>         0.1317
     37 H4        -11.7067    4.6226   -7.8198 H         1 <0>         0.1229
     38 H5        -11.5825    5.5800   -5.5272 H         1 <0>         0.1049
     39 H6        -14.0178    7.7672   -2.8613 H         1 <0>         0.1333
     40 H7        -12.7384    8.7996   -1.0357 H         1 <0>         0.1304
     41 H8         -9.5874    5.9619   -1.6252 H         1 <0>         0.1238
     42 H9        -10.8625    4.9151   -3.4456 H         1 <0>         0.1248
     43 H10        -7.7760    8.6112   -1.4294 H         1 <0>         0.1349
     44 H11        -5.6203    7.4334   -1.4646 H         1 <0>         0.1354
     45 H12        -7.0635    4.7240    1.5368 H         1 <0>         0.1294
     46 H13        -9.2114    5.9160    1.5715 H         1 <0>         0.1331
     47 H14        -4.8878    5.2635    2.0815 H         1 <0>         0.1074
     48 H15        -2.9745    4.2019    3.2649 H         1 <0>         0.1229
     49 H16        -0.8269    3.0210    3.2318 H         1 <0>         0.1322
     50 H17        -0.8535    3.0884   -1.0591 H         1 <0>         0.1354
     51 H18        -3.0060    4.2604   -1.0287 H         1 <0>         0.1305
     52 O3          1.1695    1.9506   -0.1104 O.co2     1 <0>        -0.7490
     53 O4        -16.9213    2.7218   -9.5020 O.co2     1 <0>        -0.7516
@<TRIPOS>BOND
     1    1    6 ar
     2    1    2 ar
     3    1   34 1
     4    2    3 ar
     5    2   35 1
     6    3    4 ar
     7    3   32 1
     8    4    5 ar
     9    4   36 1
    10    5    6 ar
    11    5   37 1
    12    6    7 1
    13    7    8 2
    14    7   38 1
    15    8    9 1
    16    9   14 ar
    17    9   10 ar
    18   10   11 ar
    19   10   39 1
    20   11   12 ar
    21   11   40 1
    22   12   13 ar
    23   12   15 1
    24   13   14 ar
    25   13   41 1
    26   14   42 1
    27   15   16 1
    28   16   21 ar
    29   16   17 ar
    30   17   18 ar
    31   17   43 1
    32   18   19 ar
    33   18   44 1
    34   19   20 ar
    35   19   22 1
    36   20   21 ar
    37   20   45 1
    38   21   46 1
    39   22   23 2
    40   23   24 1
    41   23   47 1
    42   24   29 ar
    43   24   25 ar
    44   25   26 ar
    45   25   48 1
    46   26   27 ar
    47   26   49 1
    48   27   28 ar
    49   27   30 1
    50   28   29 ar
    51   28   50 1
    52   29   51 1
    53   30   31 2
    54   30   52 1
    55   32   33 2
    56   32   53 1
@<TRIPOS>MOLECULE
ZINC19854941
   53    55     0     0     0
SMALL
USER_CHARGES
6-[(5S)-4-(4-bromobenzoyl)-3-hydroxy-2-oxo-5-(p-tolyl)-5H-pyrrol-1-yl]hexanoic acid
@<TRIPOS>ATOM
      1 C1          1.8195    3.9568   -1.6971 C.3       1 <0>        -0.1087
      2 C2          1.6628    2.5126   -1.2961 C.ar      1 <0>        -0.1027
      3 C3          0.4060    2.0010   -1.0322 C.ar      1 <0>        -0.1220
      4 C4          0.2622    0.6762   -0.6647 C.ar      1 <0>        -0.1121
      5 C5          1.3752   -0.1370   -0.5611 C.ar      1 <0>        -0.0729
      6 C6          2.6320    0.3744   -0.8254 C.ar      1 <0>        -0.0871
      7 C7          2.7757    1.6990   -1.1938 C.ar      1 <0>        -0.1222
      8 C8          1.2186   -1.5811   -0.1595 C.3       1 <0>         0.2617
      9 H1          0.2437   -1.6968    0.3367 H         1 <0>         0.0688
     10 C9          1.3514   -2.4744   -1.3707 C.2       1 <0>        -0.5022
     11 C10         2.4109   -3.2856   -1.1435 C.2       1 <0>         0.2691
     12 C11         2.9921   -2.9664    0.1776 C.2       1 <0>         0.5094
     13 O1          3.9551   -3.5214    0.6682 O.2       1 <0>        -0.5347
     14 N1          2.2966   -1.9696    0.7574 N.am      1 <0>        -0.6089
     15 C12         2.5674   -1.3773    2.0697 C.3       1 <0>         0.1360
     16 C13         1.7880   -2.1389    3.1437 C.3       1 <0>        -0.1350
     17 C14         2.0709   -1.5204    4.5142 C.3       1 <0>        -0.1147
     18 C15         1.2914   -2.2820    5.5881 C.3       1 <0>        -0.0975
     19 C16         1.5743   -1.6635    6.9586 C.3       1 <0>        -0.1569
     20 C17         0.8066   -2.4137    8.0164 C.2       1 <0>         0.4583
     21 O2          0.1052   -3.3472    7.7060 O.co2     1 <0>        -0.6409
     22 O3          0.9020   -2.0447    9.3035 O.co2     1 <0>        -0.7857
     23 O4          2.8660   -4.2367   -1.9911 O.3       1 <0>        -0.6557
     24 C18         0.4977   -2.4643   -2.5624 C.2       1 <0>         0.5036
     25 O5          0.9663   -2.1625   -3.6439 O.2       1 <0>        -0.4726
     26 C19        -0.9324   -2.8208   -2.4501 C.ar      1 <0>        -0.1178
     27 C20        -1.4461   -3.2863   -1.2373 C.ar      1 <0>        -0.0580
     28 C21        -2.7819   -3.6126   -1.1378 C.ar      1 <0>        -0.1052
     29 C22        -3.6119   -3.4897   -2.2399 C.ar      1 <0>        -0.0774
     30 C23        -3.1076   -3.0337   -3.4467 C.ar      1 <0>        -0.1086
     31 C24        -1.7747   -2.6991   -3.5578 C.ar      1 <0>        -0.0725
     32 Br1        -5.4414   -3.9458   -2.0962 Br        1 <0>        -0.0652
     33 H2          0.8313    4.4392   -1.7240 H         1 <0>         0.0595
     34 H3          2.2819    4.0125   -2.6936 H         1 <0>         0.0631
     35 H4          2.4597    4.4728   -0.9664 H         1 <0>         0.0632
     36 H5         -0.4640    2.6352   -1.1175 H         1 <0>         0.1144
     37 H6         -0.7196    0.2766   -0.4582 H         1 <0>         0.1181
     38 H7          3.5016   -0.2607   -0.7438 H         1 <0>         0.1164
     39 H8          3.7576    2.0987   -1.4000 H         1 <0>         0.1140
     40 H9          3.6444   -1.4395    2.2848 H         1 <0>         0.0762
     41 H10         2.2542   -0.3228    2.0678 H         1 <0>         0.0732
     42 H11         0.7110   -2.0767    2.9286 H         1 <0>         0.0636
     43 H12         2.1012   -3.1934    3.1456 H         1 <0>         0.0666
     44 H13         3.1479   -1.5827    4.7293 H         1 <0>         0.0574
     45 H14         1.7578   -0.4659    4.5123 H         1 <0>         0.0564
     46 H15         0.2145   -2.2197    5.3729 H         1 <0>         0.0588
     47 H16         1.6045   -3.3365    5.5900 H         1 <0>         0.0595
     48 H17         2.6513   -1.7257    7.1737 H         1 <0>         0.0610
     49 H18         1.2611   -0.6090    6.9567 H         1 <0>         0.0606
     50 H19        -0.7990   -3.3864   -0.3784 H         1 <0>         0.1460
     51 H20        -3.1812   -3.9687   -0.1996 H         1 <0>         0.1348
     52 H21        -3.7599   -2.9398   -4.3022 H         1 <0>         0.1300
     53 H22        -1.3827   -2.3434   -4.4992 H         1 <0>         0.1371
@<TRIPOS>BOND
     1    1    2 1
     2    1   33 1
     3    1   34 1
     4    1   35 1
     5    2    7 ar
     6    2    3 ar
     7    3    4 ar
     8    3   36 1
     9    4    5 ar
    10    4   37 1
    11    5    6 ar
    12    5    8 1
    13    6    7 ar
    14    6   38 1
    15    7   39 1
    16    8    9 1
    17    8   14 1
    18    8   10 1
    19   10   11 2
    20   10   24 1
    21   11   12 1
    22   11   23 1
    23   12   13 2
    24   12   14 am
    25   14   15 1
    26   15   16 1
    27   15   40 1
    28   15   41 1
    29   16   17 1
    30   16   42 1
    31   16   43 1
    32   17   18 1
    33   17   44 1
    34   17   45 1
    35   18   19 1
    36   18   46 1
    37   18   47 1
    38   19   20 1
    39   19   48 1
    40   19   49 1
    41   20   21 2
    42   20   22 1
    43   24   25 2
    44   24   26 1
    45   26   31 ar
    46   26   27 ar
    47   27   28 ar
    48   27   50 1
    49   28   29 ar
    50   28   51 1
    51   29   30 ar
    52   29   32 1
    53   30   31 ar
    54   30   52 1
    55   31   53 1
@<TRIPOS>MOLECULE
ZINC35898163
   49    52     0     0     0
SMALL
USER_CHARGES

@<TRIPOS>ATOM
      1 C1         -0.8083    1.9326   -2.1251 C.ar      1 <0>        -0.1781
      2 C2          0.2817    2.7605   -2.3094 C.ar      1 <0>        -0.0066
      3 C3          1.5014    2.4364   -1.7442 C.ar      1 <0>        -0.6443
      4 C4          1.6339    1.2833   -0.9926 C.ar      1 <0>        -0.0046
      5 C5          0.5476    0.4515   -0.8041 C.ar      1 <0>        -0.1446
      6 C6         -0.6786    0.7739   -1.3707 C.ar      1 <0>         0.2149
      7 N1         -1.7810   -0.0667   -1.1816 N.am      1 <0>        -0.6830
      8 C7         -1.6083   -1.4021   -1.1243 C.2       1 <0>         0.5346
      9 O1         -0.4900   -1.8708   -1.1537 O.2       1 <0>        -0.4647
     10 C8         -2.8045   -2.3131   -1.0236 C.3       1 <0>        -0.0838
     11 H1         -3.7214   -1.7584   -1.2230 H         1 <0>         0.0702
     12 C9         -2.8659   -2.9759    0.3864 C.3       1 <0>        -0.0948
     13 H2         -3.2952   -2.3660    1.1814 H         1 <0>         0.0890
     14 C10        -1.4184   -3.4994    0.6350 C.3       1 <0>        -0.1417
     15 C11        -1.2568   -4.6827   -0.3464 C.3       1 <0>        -0.1321
     16 C12        -2.6219   -4.7628   -1.0955 C.3       1 <0>        -0.0663
     17 H3         -2.8448   -5.7136   -1.5796 H         1 <0>         0.0846
     18 C13        -3.6240   -4.3079    0.0480 C.3       1 <0>        -0.1282
     19 C14        -2.6654   -3.4961   -2.0088 C.3       1 <0>        -0.1497
     20 H4         -3.5150   -3.5242   -2.6912 H         1 <0>         0.0647
     21 C15        -1.3746   -3.3893   -2.7791 C.2       1 <0>         0.5127
     22 O2         -0.6479   -4.3622   -2.8889 O.co2     1 <0>        -0.6889
     23 O3         -1.0569   -2.3301   -3.2925 O.co2     1 <0>        -0.6843
     24 S1          2.8899    3.4947   -1.9828 S.o2      1 <0>         2.6151
     25 O4          4.0483    2.6905   -1.8075 O.2       1 <0>        -1.0269
     26 O5          2.6432    4.2253   -3.1764 O.2       1 <0>        -1.0298
     27 N2          2.8855    4.5947   -0.7450 N.2       1 <0>        -1.0809
     28 C16         3.8824    5.5704   -0.6743 C.ar      1 <0>         0.3054
     29 C17         4.8748    5.6227   -1.6447 C.ar      1 <0>        -0.2546
     30 C18         5.8599    6.5897   -1.5725 C.ar      1 <0>         0.0413
     31 C19         5.8580    7.5050   -0.5346 C.ar      1 <0>        -0.2197
     32 C20         4.8708    7.4549    0.4338 C.ar      1 <0>         0.0254
     33 C21         3.8800    6.4936    0.3634 C.ar      1 <0>        -0.1717
     34 Cl1         4.8730    8.6044    1.7347 Cl        1 <0>        -0.0977
     35 Cl2         7.1009    6.6556   -2.7847 Cl        1 <0>        -0.0966
     36 H5         -1.7617    2.1884   -2.5633 H         1 <0>         0.1241
     37 H6          0.1814    3.6618   -2.8960 H         1 <0>         0.1338
     38 H7          2.5879    1.0327   -0.5527 H         1 <0>         0.1341
     39 H8          0.6518   -0.4492   -0.2172 H         1 <0>         0.1400
     40 H9         -2.6697    0.3116   -1.0918 H         1 <0>         0.3997
     41 H10        -0.6892   -2.7200    0.4138 H         1 <0>         0.0949
     42 H11        -1.3096   -3.8417    1.6642 H         1 <0>         0.0424
     43 H12        -0.4482   -4.4851   -1.0501 H         1 <0>         0.1238
     44 H13        -1.0686   -5.6068    0.2003 H         1 <0>         0.0346
     45 H14        -3.6221   -5.0038    0.8870 H         1 <0>         0.0608
     46 H15        -4.6328   -4.1219   -0.3204 H         1 <0>         0.0603
     47 H16         4.8769    4.9084   -2.4547 H         1 <0>         0.1155
     48 H17         6.6287    8.2597   -0.4802 H         1 <0>         0.1221
     49 H18         3.1070    6.4579    1.1169 H         1 <0>         0.1293
@<TRIPOS>BOND
     1    1    6 ar
     2    1    2 ar
     3    1   36 1
     4    2    3 ar
     5    2   37 1
     6    3    4 ar
     7    3   24 1
     8    4    5 ar
     9    4   38 1
    10    5    6 ar
    11    5   39 1
    12    6    7 1
    13    7    8 am
    14    7   40 1
    15    8    9 2
    16    8   10 1
    17   10   11 1
    18   10   19 1
    19   10   12 1
    20   12   13 1
    21   12   18 1
    22   12   14 1
    23   14   15 1
    24   14   41 1
    25   14   42 1
    26   15   16 1
    27   15   43 1
    28   15   44 1
    29   16   17 1
    30   16   18 1
    31   16   19 1
    32   18   45 1
    33   18   46 1
    34   19   20 1
    35   19   21 1
    36   21   22 2
    37   21   23 1
    38   24   25 2
    39   24   26 2
    40   24   27 1
    41   27   28 1
    42   28   33 ar
    43   28   29 ar
    44   29   30 ar
    45   29   47 1
    46   30   31 ar
    47   30   35 1
    48   31   32 ar
    49   31   48 1
    50   32   33 ar
    51   32   34 1
    52   33   49 1
@<TRIPOS>MOLECULE
ZINC13213220
   47    50     0     0     0
SMALL
USER_CHARGES

@<TRIPOS>ATOM
      1 C1         -0.4575    0.7984   -0.3903 C.ar      1 <0>        -0.1148
      2 C2          0.5966    1.6888   -0.3784 C.ar      1 <0>        -0.1142
      3 C3          1.9100    1.2156   -0.3216 C.ar      1 <0>        -0.1082
      4 C4          2.1499   -0.1592   -0.2771 C.ar      1 <0>        -0.1177
      5 C5          1.0833   -1.0445   -0.2896 C.ar      1 <0>         0.1583
      6 C6         -0.2198   -0.5625   -0.3463 C.ar      1 <0>        -0.1693
      7 N1          1.3178   -2.4219   -0.2453 N.am      1 <0>        -0.5515
      8 C7          0.2936   -3.4730   -0.2579 C.3       1 <0>         0.2624
      9 H1         -0.2908   -3.4159   -1.1762 H         1 <0>         0.0837
     10 C8          1.0377   -4.7866   -0.1964 C.2       1 <0>        -0.5167
     11 C9          2.3572   -4.4862   -0.1536 C.2       1 <0>         0.2820
     12 C10         2.5223   -3.0185   -0.1894 C.2       1 <0>         0.4999
     13 O1          3.5886   -2.4361   -0.1691 O.2       1 <0>        -0.4879
     14 O2          3.3646   -5.3872   -0.0922 O.3       1 <0>        -0.6398
     15 C11         0.4453   -6.1273   -0.1853 C.2       1 <0>         0.5076
     16 O3          0.5561   -6.8332    0.7997 O.2       1 <0>        -0.4709
     17 C12        -0.2862   -6.6215   -1.3699 C.ar      1 <0>        -0.1492
     18 C13        -0.3086   -5.8667   -2.5456 C.ar      1 <0>        -0.0356
     19 C14        -0.9921   -6.3329   -3.6476 C.ar      1 <0>        -0.1668
     20 C15        -1.6570   -7.5487   -3.5914 C.ar      1 <0>         0.1084
     21 C16        -1.6386   -8.3019   -2.4269 C.ar      1 <0>        -0.1698
     22 C17        -0.9535   -7.8482   -1.3206 C.ar      1 <0>        -0.0472
     23 F1         -2.3256   -8.0009   -4.6748 F         1 <0>        -0.1439
     24 C18        -0.6095   -3.3310    0.9401 C.ar      1 <0>        -0.0608
     25 C19        -0.0678   -3.0905    2.1893 C.ar      1 <0>        -0.0196
     26 C20        -0.8954   -2.9597    3.2882 C.ar      1 <0>        -0.1074
     27 C21        -2.2666   -3.0695    3.1382 C.ar      1 <0>         0.0104
     28 C22        -2.8081   -3.3100    1.8881 C.ar      1 <0>        -0.0473
     29 C23        -1.9794   -3.4354    0.7888 C.ar      1 <0>        -0.0426
     30 N2         -4.2746   -3.4275    1.7269 N.pl3     1 <0>         0.0414
     31 O4         -4.7546   -3.5346    0.6225 O.2       1 <0>        -0.1690
     32 O5         -4.9925   -3.4164    2.6996 O.3       1 <0>        -0.1492
     33 Cl1        -3.3070   -2.9058    4.5182 Cl        1 <0>        -0.0241
     34 C24         3.0394    2.1651   -0.3091 C.2       1 <0>         0.5215
     35 O6          2.8268    3.3687   -0.3486 O.co2     1 <0>        -0.6949
     36 O7          4.1881    1.7484   -0.2594 O.co2     1 <0>        -0.6793
     37 H2         -1.4722    1.1663   -0.4297 H         1 <0>         0.1132
     38 H3          0.4065    2.7514   -0.4132 H         1 <0>         0.1228
     39 H4          3.1627   -0.5316   -0.2335 H         1 <0>         0.1587
     40 H5         -1.0493   -1.2541   -0.3560 H         1 <0>         0.1104
     41 H6          0.2086   -4.9197   -2.5904 H         1 <0>         0.1465
     42 H7         -1.0103   -5.7501   -4.5568 H         1 <0>         0.1373
     43 H8         -2.1584   -9.2478   -2.3885 H         1 <0>         0.1336
     44 H9         -0.9360   -8.4376   -0.4158 H         1 <0>         0.1385
     45 H10         1.0025   -3.0053    2.3063 H         1 <0>         0.1479
     46 H11        -0.4721   -2.7723    4.2639 H         1 <0>         0.1545
     47 H12        -2.4023   -3.6188   -0.1879 H         1 <0>         0.1588
@<TRIPOS>BOND
     1    1    6 ar
     2    1    2 ar
     3    1   37 1
     4    2    3 ar
     5    2   38 1
     6    3    4 ar
     7    3   34 1
     8    4    5 ar
     9    4   39 1
    10    5    6 ar
    11    5    7 1
    12    6   40 1
    13    7   12 am
    14    7    8 1
    15    8    9 1
    16    8   10 1
    17    8   24 1
    18   10   11 2
    19   10   15 1
    20   11   12 1
    21   11   14 1
    22   12   13 2
    23   15   16 2
    24   15   17 1
    25   17   22 ar
    26   17   18 ar
    27   18   19 ar
    28   18   41 1
    29   19   20 ar
    30   19   42 1
    31   20   21 ar
    32   20   23 1
    33   21   22 ar
    34   21   43 1
    35   22   44 1
    36   24   29 ar
    37   24   25 ar
    38   25   26 ar
    39   25   45 1
    40   26   27 ar
    41   26   46 1
    42   27   28 ar
    43   27   33 1
    44   28   29 ar
    45   28   30 1
    46   29   47 1
    47   30   31 2
    48   30   32 1
    49   34   35 2
    50   34   36 1
@<TRIPOS>MOLECULE
ZINC12446715
   57    62     0     0     0
SMALL
USER_CHARGES

@<TRIPOS>ATOM
      1 C1          0.0592    1.4807   -0.1537 C.3       1 <0>        -0.0729
      2 C2          0.0695   -0.0262   -0.1419 C.2       1 <0>         0.0280
      3 C3         -1.0140   -0.8219   -0.1277 C.2       1 <0>        -0.2665
      4 C4         -0.5720   -2.1647   -0.1212 C.2       1 <0>         0.3875
      5 N1          0.7369   -2.1567   -0.1313 N.2       1 <0>        -0.4574
      6 O1          1.1622   -0.8060   -0.1496 O.3       1 <0>        -0.1249
      7 N2         -1.3840   -3.2941   -0.1062 N.2       1 <0>        -1.0481
      8 S1         -0.7029   -4.8035   -0.1004 S.o2      1 <0>         2.6248
      9 O2         -0.0438   -4.9565   -1.3499 O.2       1 <0>        -1.0286
     10 O3         -0.0238   -4.9378    1.1406 O.2       1 <0>        -1.0318
     11 C5         -2.0228   -5.9706   -0.0810 C.ar      1 <0>        -0.6608
     12 C6         -2.5356   -6.4159    1.1238 C.ar      1 <0>         0.0120
     13 C7         -3.5746   -7.3251    1.1505 C.ar      1 <0>        -0.2076
     14 C8         -4.1118   -7.8036   -0.0336 C.ar      1 <0>         0.2442
     15 C9         -3.5715   -7.3504   -1.2545 C.ar      1 <0>        -0.1456
     16 C10        -2.5521   -6.4390   -1.2731 C.ar      1 <0>         0.0190
     17 C11        -4.2038   -7.9632   -2.4433 C.3       1 <0>        -0.0592
     18 H1         -5.2187   -7.5768   -2.5364 H         1 <0>         0.1025
     19 C12        -3.5342   -7.9202   -3.8226 C.3       1 <0>        -0.0920
     20 H2         -2.8411   -7.1005   -4.0115 H         1 <0>         0.1046
     21 C13        -4.8092   -8.0265   -4.7448 C.3       1 <0>        -0.1215
     22 C14        -5.3847   -9.4162   -4.3784 C.3       1 <0>        -0.1342
     23 C15        -4.3182  -10.1188   -3.4939 C.3       1 <0>        -0.0784
     24 H3         -4.3223  -11.2083   -3.5253 H         1 <0>         0.0937
     25 C16        -2.9884   -9.3868   -4.0188 C.3       1 <0>        -0.1230
     26 C17        -4.2866   -9.4819   -2.1164 C.3       1 <0>        -0.0980
     27 H4         -3.3571   -9.7669   -1.6237 H         1 <0>         0.0722
     28 C18        -5.3993   -9.6755   -1.1319 C.3       1 <0>         0.2159
     29 H5         -5.3786  -10.6935   -0.7428 H         1 <0>         0.0787
     30 N3         -5.1765   -8.7093   -0.0316 N.pl3     1 <0>        -0.7465
     31 C19        -6.7254   -9.4057   -1.7950 C.ar      1 <0>        -0.1157
     32 C20        -7.4535  -10.4523   -2.3336 C.ar      1 <0>        -0.1189
     33 C21        -8.6720  -10.2140   -2.9443 C.ar      1 <0>        -0.1421
     34 C22        -9.1694   -8.9296   -3.0208 C.ar      1 <0>        -0.0879
     35 C23        -8.4400   -7.8683   -2.4794 C.ar      1 <0>        -0.1312
     36 C24        -7.2130   -8.1174   -1.8587 C.ar      1 <0>        -0.0663
     37 C25        -8.9654   -6.4919   -2.5572 C.2       1 <0>         0.5170
     38 O4        -10.0419   -6.2778   -3.0966 O.co2     1 <0>        -0.6941
     39 O5         -8.3245   -5.5650   -2.0823 O.co2     1 <0>        -0.6776
     40 H6          1.0842    1.8510   -0.1692 H         1 <0>         0.0700
     41 H7         -0.4680    1.8335   -1.0401 H         1 <0>         0.0804
     42 H8         -0.4462    1.8476    0.7397 H         1 <0>         0.0798
     43 H9         -2.0426   -0.4928   -0.1219 H         1 <0>         0.1403
     44 H10        -2.1199   -6.0500    2.0510 H         1 <0>         0.1305
     45 H11        -3.9693   -7.6643    2.0968 H         1 <0>         0.1198
     46 H12        -2.1571   -6.0883   -2.2151 H         1 <0>         0.1315
     47 H13        -5.5236   -7.2382   -4.5079 H         1 <0>         0.0691
     48 H14        -4.5282   -7.9905   -5.7974 H         1 <0>         0.0577
     49 H15        -6.3143   -9.3003   -3.8212 H         1 <0>         0.0920
     50 H16        -5.5612   -9.9977   -5.2832 H         1 <0>         0.0543
     51 H17        -2.7971   -9.6140   -5.0676 H         1 <0>         0.0659
     52 H18        -2.1148   -9.5836   -3.3974 H         1 <0>         0.0673
     53 H19        -5.7920   -8.7051    0.7181 H         1 <0>         0.3978
     54 H20        -7.0686  -11.4598   -2.2772 H         1 <0>         0.1102
     55 H21        -9.2348  -11.0354   -3.3624 H         1 <0>         0.1110
     56 H22       -10.1203   -8.7450   -3.4984 H         1 <0>         0.1219
     57 H23        -6.6460   -7.3023   -1.4338 H         1 <0>         0.1309
@<TRIPOS>BOND
     1    1    2 1
     2    1   40 1
     3    1   41 1
     4    1   42 1
     5    2    6 1
     6    2    3 2
     7    3    4 1
     8    3   43 1
     9    4    5 2
    10    4    7 1
    11    5    6 1
    12    7    8 1
    13    8    9 2
    14    8   10 2
    15    8   11 1
    16   11   16 ar
    17   11   12 ar
    18   12   13 ar
    19   12   44 1
    20   13   14 ar
    21   13   45 1
    22   14   30 1
    23   14   15 ar
    24   15   16 ar
    25   15   17 1
    26   16   46 1
    27   17   18 1
    28   17   26 1
    29   17   19 1
    30   19   20 1
    31   19   25 1
    32   19   21 1
    33   21   22 1
    34   21   47 1
    35   21   48 1
    36   22   23 1
    37   22   49 1
    38   22   50 1
    39   23   24 1
    40   23   25 1
    41   23   26 1
    42   25   51 1
    43   25   52 1
    44   26   27 1
    45   26   28 1
    46   28   29 1
    47   28   30 1
    48   28   31 1
    49   30   53 1
    50   31   36 ar
    51   31   32 ar
    52   32   33 ar
    53   32   54 1
    54   33   34 ar
    55   33   55 1
    56   34   35 ar
    57   34   56 1
    58   35   36 ar
    59   35   37 1
    60   36   57 1
    61   37   38 2
    62   37   39 1
@<TRIPOS>MOLECULE
ZINC09763335
   48    51     0     0     0
SMALL
USER_CHARGES
5-[5-[[3-(2,4-dimethylphenyl)-4-oxo-2-thioxo-thiazolidin-5-ylidene]methyl]-2-furyl]benzene-1,3-dicarboxylic acid
@<TRIPOS>ATOM
      1 C1          6.3223    0.5458   -0.0554 C.3       1 <0>        -0.1140
      2 C2          4.9143    1.0826   -0.0391 C.ar      1 <0>        -0.0670
      3 C3          4.2577    1.3340   -1.2301 C.ar      1 <0>        -0.1177
      4 C4          2.9676    1.8264   -1.2184 C.ar      1 <0>        -0.0774
      5 C5          2.3293    2.0688   -0.0091 C.ar      1 <0>         0.1003
      6 C6          2.9928    1.8200    1.1847 C.ar      1 <0>        -0.0447
      7 C7          4.2817    1.3233    1.1665 C.ar      1 <0>        -0.1146
      8 C8          2.3058    2.0869    2.4992 C.3       1 <0>        -0.1201
      9 N1          1.0205    2.5688    0.0061 N.am      1 <0>        -0.4819
     10 C9          0.8229    3.8757    0.0146 C.2       1 <0>         0.5494
     11 O1          1.7614    4.6520    0.0098 O.2       1 <0>        -0.4768
     12 C10        -0.5241    4.3500    0.0300 C.2       1 <0>        -0.3033
     13 C11        -0.9933    5.6318    0.0410 C.2       1 <0>         0.1567
     14 C12        -2.3837    5.8743    0.0557 C.2       1 <0>        -0.0968
     15 C13        -2.9924    7.1168    0.0679 C.2       1 <0>        -0.0864
     16 C14        -4.3710    6.8896    0.0796 C.2       1 <0>        -0.2387
     17 C15        -4.5562    5.5360    0.0742 C.2       1 <0>         0.1627
     18 O2         -3.3528    4.9349    0.0545 O.3       1 <0>        -0.1528
     19 C16        -5.8616    4.8468    0.0821 C.ar      1 <0>        -0.1105
     20 C17        -7.0429    5.5895    0.1020 C.ar      1 <0>        -0.0402
     21 C18        -8.2759    4.9380    0.1040 C.ar      1 <0>        -0.1427
     22 C19        -8.3284    3.5444    0.0978 C.ar      1 <0>         0.0043
     23 C20        -7.1481    2.8017    0.0832 C.ar      1 <0>        -0.1416
     24 C21        -5.9147    3.4524    0.0754 C.ar      1 <0>        -0.0444
     25 C22        -7.2044    1.3251    0.0757 C.2       1 <0>         0.4951
     26 O3         -6.1764    0.6782    0.0626 O.co2     1 <0>        -0.6352
     27 C23        -9.5269    5.7244    0.1189 C.2       1 <0>         0.4982
     28 O4         -9.4812    6.9382    0.1244 O.co2     1 <0>        -0.6429
     29 S1         -1.4284    2.8081    0.0229 S.3       1 <0>         0.1366
     30 C24        -0.0211    1.7077    0.0114 C.2       1 <0>         0.2636
     31 S2          0.0021   -0.0041    0.0020 S.2       1 <0>        -0.3435
     32 H1          7.0279    1.3765   -0.0585 H         1 <0>         0.0717
     33 H2          6.4875   -0.0679    0.8301 H         1 <0>         0.0682
     34 H3          6.4699   -0.0597   -0.9497 H         1 <0>         0.0684
     35 H4          4.7546    1.1454   -2.1702 H         1 <0>         0.1301
     36 H5          2.4554    2.0225   -2.1487 H         1 <0>         0.1256
     37 H6          4.7971    1.1264    2.0949 H         1 <0>         0.1302
     38 H7          1.7738    1.1912    2.8197 H         1 <0>         0.0820
     39 H8          3.0492    2.3560    3.2496 H         1 <0>         0.0751
     40 H9          1.5976    2.9067    2.3792 H         1 <0>         0.0584
     41 H10        -0.3006    6.4604    0.0385 H         1 <0>         0.1786
     42 H11        -2.4975    8.0768    0.0679 H         1 <0>         0.1628
     43 H12        -5.1450    7.6427    0.0913 H         1 <0>         0.1660
     44 H13        -7.0023    6.6687    0.1113 H         1 <0>         0.1303
     45 H14        -9.2835    3.0401    0.1039 H         1 <0>         0.1475
     46 H15        -5.0007    2.8771    0.0637 H         1 <0>         0.1304
     47 O5         -8.3958    0.6965    0.0833 O.co2     1 <0>        -0.7509
     48 O6        -10.7179    5.0951    0.1265 O.co2     1 <0>        -0.7483
@<TRIPOS>BOND
     1    1    2 1
     2    1   32 1
     3    1   33 1
     4    1   34 1
     5    2    7 ar
     6    2    3 ar
     7    3    4 ar
     8    3   35 1
     9    4    5 ar
    10    4   36 1
    11    5    6 ar
    12    5    9 1
    13    6    7 ar
    14    6    8 1
    15    7   37 1
    16    8   38 1
    17    8   39 1
    18    8   40 1
    19    9   30 1
    20    9   10 am
    21   10   11 2
    22   10   12 1
    23   12   13 2
    24   12   29 1
    25   13   14 1
    26   13   41 1
    27   14   18 1
    28   14   15 2
    29   15   16 1
    30   15   42 1
    31   16   17 2
    32   16   43 1
    33   17   18 1
    34   17   19 1
    35   19   24 ar
    36   19   20 ar
    37   20   21 ar
    38   20   44 1
    39   21   22 ar
    40   21   27 1
    41   22   23 ar
    42   22   45 1
    43   23   24 ar
    44   23   25 1
    45   24   46 1
    46   25   26 2
    47   25   47 1
    48   27   28 2
    49   27   48 1
    50   29   30 1
    51   30   31 2
@<TRIPOS>MOLECULE
ZINC16913360
   47    49     0     0     0
SMALL
USER_CHARGES
(2S)-2-[4-[(E)-[2-[(4-bromophenyl)amino]-4-oxo-thiazol-5-ylidene]methyl]-2-methoxy-phenoxy]butanoic acid
@<TRIPOS>ATOM
      1 C1         -7.7685    8.3146   -2.1719 C.3       1 <0>        -0.1525
      2 C2         -8.3489    9.4968   -1.3931 C.3       1 <0>        -0.1233
      3 C3         -8.4322    9.1377    0.0918 C.3       1 <0>         0.0366
      4 H1         -7.4689    8.7713    0.4762 H         1 <0>         0.0782
      5 C4         -8.8876   10.3419    0.8751 C.2       1 <0>         0.4732
      6 O1         -9.9071   10.2918    1.5216 O.co2     1 <0>        -0.6170
      7 O2         -8.1606   11.4701    0.8546 O.co2     1 <0>        -0.7597
      8 O3         -9.3659    8.0710    0.2723 O.3       1 <0>        -0.2777
      9 C5         -8.8657    6.8082    0.2790 C.ar      1 <0>         0.1371
     10 C6         -7.4942    6.6065    0.1973 C.ar      1 <0>        -0.1926
     11 C7         -6.9802    5.3287    0.2099 C.ar      1 <0>        -0.0273
     12 C8         -7.8427    4.2286    0.2940 C.ar      1 <0>        -0.0840
     13 C9         -9.2257    4.4334    0.3764 C.ar      1 <0>        -0.1478
     14 C10        -9.7311    5.7183    0.3684 C.ar      1 <0>         0.0686
     15 O4        -11.0735    5.9211    0.4483 O.3       1 <0>        -0.3029
     16 C11       -11.9009    4.7595    0.5379 C.3       1 <0>         0.0267
     17 C12        -7.2985    2.8651    0.3019 C.2       1 <0>         0.0053
     18 C13        -6.2762    2.5376   -0.5288 C.2       1 <0>        -0.2016
     19 C14        -5.6594    3.3167   -1.6277 C.2       1 <0>         0.5259
     20 O5         -6.0481    4.4363   -1.9203 O.2       1 <0>        -0.5086
     21 N1         -4.6664    2.7383   -2.2664 N.2       1 <0>        -0.7123
     22 C15        -4.2388    1.5229   -1.9628 C.2       1 <0>         0.4573
     23 S1         -5.2950    1.0442   -0.6045 S.3       1 <0>        -0.1437
     24 N2         -3.2259    0.8069   -2.5463 N.2       1 <0>        -0.5854
     25 C16        -2.4253    1.4002   -3.5274 C.ar      1 <0>         0.1863
     26 C17        -1.7848    0.6109   -4.4739 C.ar      1 <0>        -0.1452
     27 C18        -0.9998    1.2001   -5.4454 C.ar      1 <0>        -0.0782
     28 C19        -0.8464    2.5749   -5.4729 C.ar      1 <0>        -0.1410
     29 C20        -1.4787    3.3634   -4.5278 C.ar      1 <0>        -0.0727
     30 C21        -2.2653    2.7797   -3.5543 C.ar      1 <0>        -0.1543
     31 Br1         0.2289    3.3780   -6.8051 Br        1 <0>        -0.0917
     32 H2         -7.7086    8.5728   -3.2395 H         1 <0>         0.0484
     33 H3         -8.4180    7.4362   -2.0429 H         1 <0>         0.0557
     34 H4         -6.7616    8.0849   -1.7932 H         1 <0>         0.0567
     35 H5         -7.6994   10.3752   -1.5221 H         1 <0>         0.0832
     36 H6         -9.3558    9.7266   -1.7718 H         1 <0>         0.0638
     37 H7         -6.8284    7.4540    0.1282 H         1 <0>         0.1391
     38 H8         -5.9128    5.1750    0.1507 H         1 <0>         0.1226
     39 H9         -9.8949    3.5887    0.4463 H         1 <0>         0.1285
     40 H10       -12.9561    5.0646    0.5961 H         1 <0>         0.0931
     41 H11       -11.6342    4.1880    1.4391 H         1 <0>         0.0490
     42 H12       -11.7493    4.1318   -0.3526 H         1 <0>         0.0488
     43 H13        -7.7192    2.1089    0.9810 H         1 <0>         0.1300
     44 H14        -1.9041   -0.4623   -4.4529 H         1 <0>         0.1219
     45 H15        -0.5054    0.5872   -6.1845 H         1 <0>         0.1186
     46 H16        -1.3572    4.4362   -4.5517 H         1 <0>         0.1175
     47 H17        -2.7588    3.3957   -2.8171 H         1 <0>         0.1477
@<TRIPOS>BOND
     1    1    2 1
     2    1   32 1
     3    1   33 1
     4    1   34 1
     5    2    3 1
     6    2   35 1
     7    2   36 1
     8    3    4 1
     9    3    5 1
    10    3    8 1
    11    5    6 2
    12    5    7 1
    13    8    9 1
    14    9   14 ar
    15    9   10 ar
    16   10   11 ar
    17   10   37 1
    18   11   12 ar
    19   11   38 1
    20   12   13 ar
    21   12   17 1
    22   13   14 ar
    23   13   39 1
    24   14   15 1
    25   15   16 1
    26   16   40 1
    27   16   41 1
    28   16   42 1
    29   17   18 2
    30   17   43 1
    31   18   23 1
    32   18   19 1
    33   19   20 2
    34   19   21 1
    35   21   22 2
    36   22   23 1
    37   22   24 1
    38   24   25 1
    39   25   30 ar
    40   25   26 ar
    41   26   27 ar
    42   26   44 1
    43   27   28 ar
    44   27   45 1
    45   28   29 ar
    46   28   31 1
    47   29   30 ar
    48   29   46 1
    49   30   47 1
@<TRIPOS>MOLECULE
ZINC13458057
   45    48     0     0     0
SMALL
USER_CHARGES

@<TRIPOS>ATOM
      1 C1         -0.0166    1.3757    0.0096 C.ar      1 <0>        -0.1250
      2 C2          1.1701    2.0869    0.0021 C.ar      1 <0>        -0.1227
      3 C3          2.3819    1.4206   -0.0135 C.ar      1 <0>        -0.1214
      4 C4          2.4134    0.0395   -0.0213 C.ar      1 <0>        -0.0199
      5 C5          1.2198   -0.6820   -0.0133 C.ar      1 <0>         0.0062
      6 C6          0.0021   -0.0041    0.0020 C.ar      1 <0>        -0.1032
      7 C7          1.2463   -2.1650   -0.0215 C.2       1 <0>         0.1172
      8 C8          0.0762   -2.8764   -0.0190 C.2       1 <0>        -0.3079
      9 S1          0.7035   -4.5508   -0.0323 S.3       1 <0>        -0.0632
     10 C9          2.4426   -4.1379   -0.0398 C.2       1 <0>         0.4188
     11 N1          2.3993   -2.8108   -0.0370 N.2       1 <0>        -0.5490
     12 N2          3.5165   -4.9585   -0.0504 N.2       1 <0>        -0.5752
     13 C10         3.3472   -6.2642   -0.0571 C.2       1 <0>         0.4638
     14 O1          2.0985   -6.7843   -0.0534 O.3       1 <0>        -0.6614
     15 C11         4.5127   -7.1549   -0.0686 C.2       1 <0>        -0.0289
     16 C12         4.3344   -8.5294   -0.0756 C.2       1 <0>         0.0337
     17 C13         5.4522   -9.3836   -0.0866 C.2       1 <0>        -0.0268
     18 C14         5.4162  -10.7698   -0.1001 C.2       1 <0>        -0.1458
     19 C15         6.7406  -11.2075   -0.1080 C.2       1 <0>        -0.2143
     20 C16         7.5375  -10.0823   -0.0992 C.2       1 <0>         0.0779
     21 O2          6.7446   -8.9956   -0.0918 O.3       1 <0>        -0.1497
     22 C17         9.0114  -10.0718   -0.1032 C.ar      1 <0>        -0.0505
     23 C18         9.7195  -11.2785   -0.1228 C.ar      1 <0>        -0.1042
     24 C19        11.0850  -11.2689   -0.1270 C.ar      1 <0>        -0.0908
     25 C20        11.7762  -10.0522   -0.1116 C.ar      1 <0>        -0.1170
     26 C21        11.0680   -8.8455   -0.0919 C.ar      1 <0>        -0.0868
     27 C22         9.7024   -8.8552   -0.0932 C.ar      1 <0>        -0.1047
     28 C23        13.2496  -10.0418   -0.1156 C.2       1 <0>         0.5193
     29 O3         13.8687  -11.0967   -0.1323 O.co2     1 <0>        -0.6884
     30 O4         13.8538   -8.9782   -0.1021 O.co2     1 <0>        -0.6843
     31 C24         5.8346   -6.6043   -0.0725 C.1       1 <0>         0.2655
     32 N3          6.8833   -6.1675   -0.0756 N.1       1 <0>        -0.4133
     33 Cl1         3.9350   -0.7959   -0.0415 Cl        1 <0>        -0.0190
     34 H1         -0.9598    1.9017    0.0260 H         1 <0>         0.1224
     35 H2          1.1502    3.1667    0.0081 H         1 <0>         0.1227
     36 H3          3.3052    1.9809   -0.0201 H         1 <0>         0.1272
     37 H4         -0.9252   -0.5577    0.0083 H         1 <0>         0.1293
     38 H5         -0.9445   -2.5234   -0.0108 H         1 <0>         0.1654
     39 H6          3.3375   -8.9447   -0.0727 H         1 <0>         0.1803
     40 H7          4.5327  -11.3910   -0.1034 H         1 <0>         0.1585
     41 H8          7.0780  -12.2334   -0.1187 H         1 <0>         0.1540
     42 H9          9.1861  -12.2175   -0.1343 H         1 <0>         0.1212
     43 H10        11.6316  -12.2003   -0.1418 H         1 <0>         0.1321
     44 H11        11.6013   -7.9065   -0.0797 H         1 <0>         0.1314
     45 H12         9.1558   -7.9238   -0.0825 H         1 <0>         0.1262
@<TRIPOS>BOND
     1    1    6 ar
     2    1    2 ar
     3    1   34 1
     4    2    3 ar
     5    2   35 1
     6    3    4 ar
     7    3   36 1
     8    4    5 ar
     9    4   33 1
    10    5    6 ar
    11    5    7 1
    12    6   37 1
    13    7   11 1
    14    7    8 2
    15    8    9 1
    16    8   38 1
    17    9   10 1
    18   10   11 2
    19   10   12 1
    20   12   13 2
    21   13   14 1
    22   13   15 1
    23   15   16 2
    24   15   31 1
    25   16   17 1
    26   16   39 1
    27   17   21 1
    28   17   18 2
    29   18   19 1
    30   18   40 1
    31   19   20 2
    32   19   41 1
    33   20   21 1
    34   20   22 1
    35   22   27 ar
    36   22   23 ar
    37   23   24 ar
    38   23   42 1
    39   24   25 ar
    40   24   43 1
    41   25   26 ar
    42   25   28 1
    43   26   27 ar
    44   26   44 1
    45   27   45 1
    46   28   29 2
    47   28   30 1
    48   31   32 3
@<TRIPOS>MOLECULE
ZINC13218129
   50    54     0     0     0
SMALL
USER_CHARGES

@<TRIPOS>ATOM
      1 C1         -0.0860    1.5273    0.0761 C.3       1 <0>        -0.1070
      2 C2         -0.0488    0.0210    0.0512 C.ar      1 <0>        -0.0965
      3 C3         -0.0335   -0.6501   -1.1572 C.ar      1 <0>        -0.1218
      4 C4          0.0006   -2.0319   -1.1800 C.ar      1 <0>        -0.0969
      5 C5          0.0198   -2.7425    0.0055 C.ar      1 <0>        -0.0678
      6 C6          0.0054   -2.0713    1.2139 C.ar      1 <0>        -0.0848
      7 C7         -0.0244   -0.6895    1.2368 C.ar      1 <0>        -0.1197
      8 C8          0.0560   -4.2488   -0.0194 C.3       1 <0>         0.2677
      9 H1          0.3115   -4.6008   -1.0188 H         1 <0>         0.0842
     10 C9         -1.2832   -4.8077    0.4017 C.2       1 <0>        -0.4864
     11 C10        -1.0648   -5.5489    1.5135 C.2       1 <0>         0.2737
     12 C11         0.3727   -5.5057    1.8510 C.2       1 <0>         0.5116
     13 O1          0.8842   -6.0724    2.7962 O.2       1 <0>        -0.4880
     14 N1          1.0331   -4.7464    0.9561 N.am      1 <0>        -0.5040
     15 C12         2.3895   -4.4822    0.9555 C.2       1 <0>         0.3890
     16 N2          3.0872   -3.7479    0.1165 N.2       1 <0>        -0.5375
     17 C13         4.4114   -3.5735    0.2338 C.ar      1 <0>         0.1033
     18 C14         5.2673   -2.8115   -0.6016 C.ar      1 <0>        -0.0908
     19 C15         6.5966   -2.7307   -0.3533 C.ar      1 <0>        -0.0726
     20 C16         7.1801   -3.3951    0.7369 C.ar      1 <0>        -0.1213
     21 C17         6.3641   -4.1566    1.5831 C.ar      1 <0>        -0.0288
     22 C18         5.0236   -4.2347    1.3281 C.ar      1 <0>        -0.1735
     23 S1          3.6427   -5.0447    2.0993 S.3       1 <0>         0.0272
     24 C19         8.6263   -3.2937    0.9863 C.2       1 <0>         0.5267
     25 O2          9.3304   -2.6263    0.2408 O.co2     1 <0>        -0.6875
     26 O3          9.1251   -3.8768    1.9394 O.co2     1 <0>        -0.6864
     27 O4         -2.0127   -6.2219    2.2056 O.3       1 <0>        -0.6411
     28 C20        -2.5705   -4.5895   -0.2650 C.2       1 <0>         0.5049
     29 O5         -3.4526   -3.9724    0.3023 O.2       1 <0>        -0.4550
     30 C21        -2.7968   -5.1188   -1.6254 C.ar      1 <0>        -0.1723
     31 C22        -1.8330   -5.9271   -2.2338 C.ar      1 <0>        -0.0363
     32 C23        -2.0505   -6.4176   -3.5033 C.ar      1 <0>        -0.1481
     33 C24        -3.2210   -6.1121   -4.1777 C.ar      1 <0>        -0.0773
     34 C25        -4.1807   -5.3134   -3.5846 C.ar      1 <0>        -0.1760
     35 C26        -3.9799   -4.8182   -2.3091 C.ar      1 <0>         0.1419
     36 F1         -4.9207   -4.0426   -1.7272 F         1 <0>        -0.1225
     37 H2          0.9324    1.9159    0.0761 H         1 <0>         0.0651
     38 H3         -0.6141    1.8924   -0.8048 H         1 <0>         0.0604
     39 H4         -0.6031    1.8632    0.9749 H         1 <0>         0.0605
     40 H5         -0.0485   -0.0950   -2.0835 H         1 <0>         0.1153
     41 H6          0.0119   -2.5562   -2.1241 H         1 <0>         0.1176
     42 H7          0.0201   -2.6265    2.1402 H         1 <0>         0.1112
     43 H8         -0.0319   -0.1650    2.1808 H         1 <0>         0.1147
     44 H9          4.8526   -2.2872   -1.4499 H         1 <0>         0.1218
     45 H10         7.2213   -2.1422   -1.0089 H         1 <0>         0.1338
     46 H11         6.7898   -4.6766    2.4286 H         1 <0>         0.1338
     47 H12        -0.9191   -6.1667   -1.7104 H         1 <0>         0.1432
     48 H13        -1.3055   -7.0420   -3.9739 H         1 <0>         0.1304
     49 H14        -3.3846   -6.4996   -5.1724 H         1 <0>         0.1291
     50 H15        -5.0909   -5.0790   -4.1167 H         1 <0>         0.1328
@<TRIPOS>BOND
     1    1    2 1
     2    1   37 1
     3    1   38 1
     4    1   39 1
     5    2    7 ar
     6    2    3 ar
     7    3    4 ar
     8    3   40 1
     9    4    5 ar
    10    4   41 1
    11    5    6 ar
    12    5    8 1
    13    6    7 ar
    14    6   42 1
    15    7   43 1
    16    8    9 1
    17    8   14 1
    18    8   10 1
    19   10   11 2
    20   10   28 1
    21   11   12 1
    22   11   27 1
    23   12   13 2
    24   12   14 am
    25   14   15 1
    26   15   23 1
    27   15   16 2
    28   16   17 1
    29   17   22 ar
    30   17   18 ar
    31   18   19 ar
    32   18   44 1
    33   19   20 ar
    34   19   45 1
    35   20   21 ar
    36   20   24 1
    37   21   22 ar
    38   21   46 1
    39   22   23 1
    40   24   25 2
    41   24   26 1
    42   28   29 2
    43   28   30 1
    44   30   35 ar
    45   30   31 ar
    46   31   32 ar
    47   31   47 1
    48   32   33 ar
    49   32   48 1
    50   33   34 ar
    51   33   49 1
    52   34   35 ar
    53   34   50 1
    54   35   36 1
@<TRIPOS>MOLECULE
ZINC59248461
   57    60     0     0     0
SMALL
USER_CHARGES

@<TRIPOS>ATOM
      1 C1         -0.0187    1.5258    0.0104 C.3       1 <0>        -0.1529
      2 C2          0.0021   -0.0041    0.0020 C.3       1 <0>         0.0540
      3 O1          0.6709   -0.4649   -1.1737 O.3       1 <0>        -0.3141
      4 C3          0.7768   -1.8109   -1.3362 C.ar      1 <0>         0.1230
      5 C4          0.2413   -2.6670   -0.3841 C.ar      1 <0>        -0.1955
      6 C5          0.3459   -4.0328   -0.5449 C.ar      1 <0>        -0.0646
      7 C6          0.9918   -4.5539   -1.6680 C.ar      1 <0>         0.0723
      8 C7          1.5290   -3.6887   -2.6233 C.ar      1 <0>        -0.1066
      9 C8          1.4150   -2.3243   -2.4567 C.ar      1 <0>        -0.1269
     10 N1          1.0985   -5.9097   -1.8317 N.2       1 <0>        -0.4873
     11 C9          0.8446   -6.4522   -3.0012 C.2       1 <0>         0.3814
     12 N2          0.8909   -7.7830   -3.3575 N.am      1 <0>        -0.6510
     13 C10         0.6017   -8.1599   -4.5914 C.2       1 <0>         0.5674
     14 O2          0.6371   -9.3310   -4.9231 O.2       1 <0>        -0.5058
     15 C11         0.2344   -7.1015   -5.5463 C.2       1 <0>        -0.2791
     16 C12        -0.1052   -7.2040   -6.8581 C.2       1 <0>         0.1539
     17 C13        -0.4381   -5.9991   -7.6260 C.2       1 <0>        -0.2193
     18 C14        -0.4475   -4.6148   -7.1371 C.2       1 <0>        -0.1657
     19 C15        -0.8096   -3.8430   -8.1764 C.2       1 <0>         0.0384
     20 N3         -1.0256   -4.6341   -9.2693 N.pl3     1 <0>        -0.3606
     21 C16        -0.8003   -5.9359   -8.9568 C.2       1 <0>         0.1190
     22 C17        -0.9268   -7.1070   -9.8968 C.3       1 <0>        -0.1011
     23 C18        -1.4175   -4.1683  -10.5322 C.ar      1 <0>         0.0373
     24 C19        -2.6581   -4.5178  -11.0437 C.ar      1 <0>        -0.0693
     25 C20        -3.0527   -4.0556  -12.3021 C.ar      1 <0>        -0.1467
     26 C21        -2.1971   -3.2415  -13.0434 C.ar      1 <0>        -0.0268
     27 C22        -0.9507   -2.8920  -12.5253 C.ar      1 <0>        -0.1468
     28 C23        -0.5658   -3.3545  -11.2639 C.ar      1 <0>        -0.0676
     29 C24        -0.0411   -2.0310  -13.3057 C.2       1 <0>         0.5273
     30 O3         -0.3803   -1.6236  -14.4077 O.co2     1 <0>        -0.6827
     31 O4          1.0519   -1.7250  -12.8505 O.co2     1 <0>        -0.6960
     32 C25        -4.3727   -4.4291  -12.8459 C.2       1 <0>         0.5274
     33 O5         -5.1222   -5.1434  -12.1952 O.co2     1 <0>        -0.6963
     34 O6         -4.7171   -4.0241  -13.9472 O.co2     1 <0>        -0.6827
     35 C26        -0.9544   -2.3434   -8.1415 C.3       1 <0>        -0.0905
     36 S1          0.3479   -5.6465   -4.5152 S.3       1 <0>        -0.0096
     37 H1          1.0039    1.9031    0.0027 H         1 <0>         0.0656
     38 H2         -0.5459    1.8868   -0.8726 H         1 <0>         0.0681
     39 H3         -0.5289    1.8773    0.9072 H         1 <0>         0.0762
     40 H4          0.5293   -0.3651    0.8851 H         1 <0>         0.0601
     41 H5         -1.0205   -0.3814    0.0098 H         1 <0>         0.0621
     42 H6         -0.2577   -2.2630    0.4844 H         1 <0>         0.1306
     43 H7         -0.0708   -4.6982    0.1967 H         1 <0>         0.1300
     44 H8          2.0297   -4.0874   -3.4933 H         1 <0>         0.1390
     45 H9          1.8266   -1.6544   -3.1971 H         1 <0>         0.1370
     46 H10         1.1383   -8.4490   -2.6970 H         1 <0>         0.4148
     47 H11        -0.1301   -8.1725   -7.3354 H         1 <0>         0.1510
     48 H12        -0.2098   -4.2816   -6.1377 H         1 <0>         0.1461
     49 H13        -1.9451   -7.4942   -9.8599 H         1 <0>         0.0861
     50 H14        -0.6974   -6.7842  -10.9123 H         1 <0>         0.0801
     51 H15        -0.2295   -7.8897   -9.5980 H         1 <0>         0.0825
     52 H16        -3.3202   -5.1485  -10.4689 H         1 <0>         0.1249
     53 H17        -2.4989   -2.8830  -14.0165 H         1 <0>         0.1393
     54 H18         0.3977   -3.0809  -10.8601 H         1 <0>         0.1253
     55 H19        -0.0026   -1.8803   -8.4020 H         1 <0>         0.0763
     56 H20        -1.7164   -2.0352   -8.8574 H         1 <0>         0.0721
     57 H21        -1.2489   -2.0299   -7.1400 H         1 <0>         0.0768
@<TRIPOS>BOND
     1    1    2 1
     2    1   37 1
     3    1   38 1
     4    1   39 1
     5    2    3 1
     6    2   40 1
     7    2   41 1
     8    3    4 1
     9    4    9 ar
    10    4    5 ar
    11    5    6 ar
    12    5   42 1
    13    6    7 ar
    14    6   43 1
    15    7    8 ar
    16    7   10 1
    17    8    9 ar
    18    8   44 1
    19    9   45 1
    20   10   11 2
    21   11   36 1
    22   11   12 1
    23   12   13 am
    24   12   46 1
    25   13   14 2
    26   13   15 1
    27   15   16 2
    28   15   36 1
    29   16   17 1
    30   16   47 1
    31   17   21 2
    32   17   18 1
    33   18   19 2
    34   18   48 1
    35   19   20 1
    36   19   35 1
    37   20   21 1
    38   20   23 1
    39   21   22 1
    40   22   49 1
    41   22   50 1
    42   22   51 1
    43   23   28 ar
    44   23   24 ar
    45   24   25 ar
    46   24   52 1
    47   25   26 ar
    48   25   32 1
    49   26   27 ar
    50   26   53 1
    51   27   28 ar
    52   27   29 1
    53   28   54 1
    54   29   30 2
    55   29   31 1
    56   32   33 2
    57   32   34 1
    58   35   55 1
    59   35   56 1
    60   35   57 1
@<TRIPOS>MOLECULE
ZINC04293052
   72    75     0     0     0
SMALL
USER_CHARGES
17-(3-methoxycarbonyl-1-methyl-propyl)-10,13-dimethyl-7-oxo-1,2,3,4,5,6,8,9,11,12,14,15,16,17-tetradecahydrocyclopenta[a]phenanthrene-3,12-dicarboxylic acid
@<TRIPOS>ATOM
      1 C1         -4.0348    0.2451   -0.0874 C.3       1 <0>        -0.1488
      2 C2         -2.5794    0.7080   -0.1793 C.3       1 <0>        -0.0893
      3 H1         -1.9899   -0.0476   -0.6986 H         1 <0>         0.0757
      4 C3         -2.5115    2.0272   -0.9513 C.3       1 <0>        -0.1155
      5 C4         -2.9623    1.7970   -2.3951 C.3       1 <0>        -0.1115
      6 C5         -2.8955    3.0963   -3.1555 C.2       1 <0>         0.4521
      7 O1         -2.5252    4.1032   -2.5996 O.2       1 <0>        -0.4919
      8 O2         -3.2472    3.1351   -4.4503 O.3       1 <0>        -0.3681
      9 C6         -3.1580    4.4207   -5.1194 C.3       1 <0>         0.0347
     10 C7         -2.0189    0.9124    1.2307 C.3       1 <0>        -0.0755
     11 H2         -2.5651    1.6919    1.7458 H         1 <0>         0.1023
     12 C8         -2.0976   -0.4161    2.0289 C.3       1 <0>        -0.1116
     13 C9         -0.6331   -0.7705    2.4250 C.3       1 <0>        -0.1225
     14 C10         0.0230    0.6180    2.4469 C.3       1 <0>        -0.0737
     15 H3         -0.4157    1.1569    3.3136 H         1 <0>         0.0978
     16 C11        -0.5180    1.2374    1.1434 C.3       1 <0>        -0.0209
     17 C12        -0.1465    2.6984    1.0829 C.3       1 <0>        -0.1160
     18 H4         -0.4703    3.1077    0.1106 H         1 <0>         0.0653
     19 C13         1.3814    2.8260    1.1740 C.3       1 <0>        -0.0903
     20 C14         1.9580    2.1561    2.4111 C.3       1 <0>        -0.0539
     21 H5          1.6064    2.7142    3.2960 H         1 <0>         0.0724
     22 C15         1.5150    0.7005    2.5678 C.3       1 <0>        -0.0972
     23 H6          1.7908    0.4218    3.4877 H         1 <0>         0.0785
     24 C16         2.2724   -0.2320    1.6764 C.2       1 <0>         0.3709
     25 O3          1.7523   -1.2597    1.2687 O.2       1 <0>        -0.4802
     26 C17         3.7112    0.0087    1.2941 C.3       1 <0>        -0.1482
     27 C18         4.0469    1.4937    1.1996 C.3       1 <0>        -0.0590
     28 H7          3.5994    1.9042    0.2829 H         1 <0>         0.0647
     29 C19         3.4845    2.2437    2.4028 C.3       1 <0>        -0.0500
     30 C20         4.0682    1.6079    3.6640 C.3       1 <0>        -0.1048
     31 C21         5.5738    1.8137    3.7024 C.3       1 <0>        -0.0883
     32 C22         6.2985    1.4448    2.4264 C.3       1 <0>        -0.1206
     33 H8          7.2129    2.0880    2.3882 H         1 <0>         0.0524
     34 C23         5.5586    1.6764    1.1291 C.3       1 <0>        -0.0897
     35 C24         6.8149    0.0268    2.5054 C.2       1 <0>         0.4662
     36 O4          6.4449   -0.7965    1.7023 O.co2     1 <0>        -0.6334
     37 C25         3.9013    3.7169    2.3447 C.3       1 <0>        -0.1373
     38 C26        -0.7966    3.5009    2.1766 C.2       1 <0>         0.4780
     39 O5         -1.5228    2.9573    2.9747 O.co2     1 <0>        -0.6353
     40 C27         0.0149    0.5334   -0.1103 C.3       1 <0>        -0.1470
     41 H9         -4.0831   -0.6947    0.4626 H         1 <0>         0.0552
     42 H10        -4.6243    1.0007    0.4319 H         1 <0>         0.0522
     43 H11        -4.4338    0.0996   -1.0913 H         1 <0>         0.0447
     44 H12        -3.1664    2.7590   -0.4784 H         1 <0>         0.0708
     45 H13        -1.4869    2.3992   -0.9455 H         1 <0>         0.0892
     46 H14        -2.3074    1.0652   -2.8679 H         1 <0>         0.1019
     47 H15        -3.9868    1.4249   -2.4009 H         1 <0>         0.1020
     48 H16        -2.1286    4.7776   -5.0847 H         1 <0>         0.0618
     49 H17        -3.4701    4.3121   -6.1581 H         1 <0>         0.0956
     50 H18        -3.8081    5.1373   -4.6176 H         1 <0>         0.0602
     51 H19        -2.5135   -1.2037    1.4037 H         1 <0>         0.0513
     52 H20        -2.7010   -0.2790    2.9248 H         1 <0>         0.0534
     53 H21        -0.1863   -1.4358    1.7008 H         1 <0>         0.0904
     54 H22        -0.6114   -1.2122    3.4227 H         1 <0>         0.0431
     55 H23         1.6102    3.8984    1.2020 H         1 <0>         0.0688
     56 H24         1.8394    2.4143    0.2783 H         1 <0>         0.0492
     57 H25         4.3115   -0.3967    1.9834 H         1 <0>         0.1087
     58 H26         3.8983   -0.4609    0.3182 H         1 <0>         0.0823
     59 H27         3.6117    2.0759    4.5415 H         1 <0>         0.0558
     60 H28         3.8373    0.5425    3.6810 H         1 <0>         0.0568
     61 H29         5.8056    2.8472    3.9801 H         1 <0>         0.0472
     62 H30         5.9791    1.1898    4.5229 H         1 <0>         0.0603
     63 H31         5.9497    0.9738    0.3701 H         1 <0>         0.0640
     64 H32         5.7890    2.6804    0.7448 H         1 <0>         0.0438
     65 H33         3.5166    4.1676    1.4299 H         1 <0>         0.0546
     66 H34         3.4949    4.2438    3.2081 H         1 <0>         0.0521
     67 H35         4.9890    3.7875    2.3550 H         1 <0>         0.0577
     68 H36        -0.2193   -0.5298   -0.0572 H         1 <0>         0.0583
     69 H37         1.0954    0.6649   -0.1693 H         1 <0>         0.0440
     70 H38        -0.4524    0.9646   -0.9956 H         1 <0>         0.0503
     71 O6          7.6846   -0.3180    3.4679 O.co2     1 <0>        -0.7797
     72 O7         -0.5700    4.8209    2.2658 O.co2     1 <0>        -0.7768
@<TRIPOS>BOND
     1    1    2 1
     2    1   41 1
     3    1   42 1
     4    1   43 1
     5    2    3 1
     6    2    4 1
     7    2   10 1
     8    4    5 1
     9    4   44 1
    10    4   45 1
    11    5    6 1
    12    5   46 1
    13    5   47 1
    14    6    7 2
    15    6    8 1
    16    8    9 1
    17    9   48 1
    18    9   49 1
    19    9   50 1
    20   10   11 1
    21   10   16 1
    22   10   12 1
    23   12   13 1
    24   12   51 1
    25   12   52 1
    26   13   14 1
    27   13   53 1
    28   13   54 1
    29   14   15 1
    30   14   22 1
    31   14   16 1
    32   16   17 1
    33   16   40 1
    34   17   18 1
    35   17   19 1
    36   17   38 1
    37   19   20 1
    38   19   55 1
    39   19   56 1
    40   20   21 1
    41   20   29 1
    42   20   22 1
    43   22   23 1
    44   22   24 1
    45   24   25 2
    46   24   26 1
    47   26   27 1
    48   26   57 1
    49   26   58 1
    50   27   28 1
    51   27   34 1
    52   27   29 1
    53   29   30 1
    54   29   37 1
    55   30   31 1
    56   30   59 1
    57   30   60 1
    58   31   32 1
    59   31   61 1
    60   31   62 1
    61   32   33 1
    62   32   34 1
    63   32   35 1
    64   34   63 1
    65   34   64 1
    66   35   36 2
    67   35   71 1
    68   37   65 1
    69   37   66 1
    70   37   67 1
    71   38   39 2
    72   38   72 1
    73   40   68 1
    74   40   69 1
    75   40   70 1
@<TRIPOS>MOLECULE
ZINC20083148
   52    54     0     0     0
SMALL
USER_CHARGES
6-[(2S)-2-(4-bromophenyl)-4-hydroxy-3-(4-nitrobenzoyl)-5-oxo-2H-pyrrol-1-yl]hexanoic acid
@<TRIPOS>ATOM
      1 C1         -0.6922    3.6617   -1.4083 C.ar      1 <0>        -0.0853
      2 C2         -1.0146    4.5352   -2.4298 C.ar      1 <0>        -0.0903
      3 C3         -1.0123    4.0959   -3.7415 C.ar      1 <0>        -0.0968
      4 C4         -0.6822    2.7841   -4.0306 C.ar      1 <0>        -0.0912
      5 C5         -0.3548    1.9128   -3.0088 C.ar      1 <0>        -0.1117
      6 C6         -0.3572    2.3522   -1.6981 C.ar      1 <0>        -0.0539
      7 C7         -0.0007    1.4017   -0.5844 C.3       1 <0>         0.2603
      8 H1         -0.1198    0.3742   -0.9586 H         1 <0>         0.0728
      9 C8          1.4040    1.6738   -0.0990 C.2       1 <0>        -0.5114
     10 C9          1.3068    2.0130    1.2079 C.2       1 <0>         0.2772
     11 C10        -0.1141    1.9775    1.6143 C.2       1 <0>         0.5096
     12 O1         -0.5275    2.2338    2.7276 O.2       1 <0>        -0.5284
     13 N1         -0.8818    1.6204    0.5688 N.am      1 <0>        -0.6086
     14 C11        -2.3396    1.4761    0.5793 C.3       1 <0>         0.1343
     15 C12        -2.7072    0.0387    0.9529 C.3       1 <0>        -0.1352
     16 C13        -4.2297   -0.1120    0.9639 C.3       1 <0>        -0.1151
     17 C14        -4.5973   -1.5494    1.3376 C.3       1 <0>        -0.0975
     18 C15        -6.1198   -1.7001    1.3485 C.3       1 <0>        -0.1571
     19 C16        -6.4819   -3.1159    1.7166 C.2       1 <0>         0.4581
     20 O2         -5.6114   -3.9217    1.9465 O.co2     1 <0>        -0.6410
     21 O3         -7.7713   -3.4817    1.7890 O.co2     1 <0>        -0.7850
     22 O4          2.3449    2.3336    2.0138 O.3       1 <0>        -0.6464
     23 C17         2.6347    1.5871   -0.8906 C.2       1 <0>         0.4998
     24 O5          3.2974    2.5865   -1.0961 O.2       1 <0>        -0.4589
     25 C18         3.0706    0.2852   -1.4393 C.ar      1 <0>        -0.0803
     26 C19         2.3826   -0.8830   -1.1042 C.ar      1 <0>        -0.0656
     27 C20         2.7918   -2.0935   -1.6234 C.ar      1 <0>        -0.0659
     28 C21         3.8877   -2.1535   -2.4664 C.ar      1 <0>        -0.0384
     29 C22         4.5773   -1.0005   -2.7984 C.ar      1 <0>        -0.0694
     30 C23         4.1757    0.2174   -2.2905 C.ar      1 <0>        -0.0793
     31 N2          4.3248   -3.4570   -3.0149 N.pl3     1 <0>         0.0317
     32 O6          5.2892   -3.5130   -3.7567 O.2       1 <0>        -0.1713
     33 O7          3.7199   -4.4735   -2.7245 O.3       1 <0>        -0.1616
     34 Br1        -1.4597    5.2887   -5.1391 Br        1 <0>        -0.0704
     35 H2         -0.6979    4.0035   -0.3838 H         1 <0>         0.1276
     36 H3         -1.2726    5.5592   -2.2036 H         1 <0>         0.1274
     37 H4         -0.6800    2.4409   -5.0546 H         1 <0>         0.1274
     38 H5         -0.0974    0.8885   -3.2344 H         1 <0>         0.1283
     39 H6         -2.7713    2.1685    1.3170 H         1 <0>         0.0788
     40 H7         -2.7383    1.7088   -0.4191 H         1 <0>         0.0739
     41 H8         -2.2755   -0.6537    0.2152 H         1 <0>         0.0639
     42 H9         -2.3085   -0.1941    1.9513 H         1 <0>         0.0675
     43 H10        -4.6614    0.5805    1.7016 H         1 <0>         0.0580
     44 H11        -4.6284    0.1207   -0.0345 H         1 <0>         0.0567
     45 H12        -4.1656   -2.2418    0.5999 H         1 <0>         0.0591
     46 H13        -4.1987   -1.7821    2.3361 H         1 <0>         0.0597
     47 H14        -6.5515   -1.0076    2.0861 H         1 <0>         0.0611
     48 H15        -6.5185   -1.4675    0.3500 H         1 <0>         0.0607
     49 H16         1.5297   -0.8381   -0.4432 H         1 <0>         0.1612
     50 H17         2.2584   -2.9972   -1.3681 H         1 <0>         0.1564
     51 H18         5.4319   -1.0544   -3.4565 H         1 <0>         0.1517
     52 H19         4.7145    1.1165   -2.5507 H         1 <0>         0.1529
@<TRIPOS>BOND
     1    1    6 ar
     2    1    2 ar
     3    1   35 1
     4    2    3 ar
     5    2   36 1
     6    3    4 ar
     7    3   34 1
     8    4    5 ar
     9    4   37 1
    10    5    6 ar
    11    5   38 1
    12    6    7 1
    13    7    8 1
    14    7   13 1
    15    7    9 1
    16    9   10 2
    17    9   23 1
    18   10   11 1
    19   10   22 1
    20   11   12 2
    21   11   13 am
    22   13   14 1
    23   14   15 1
    24   14   39 1
    25   14   40 1
    26   15   16 1
    27   15   41 1
    28   15   42 1
    29   16   17 1
    30   16   43 1
    31   16   44 1
    32   17   18 1
    33   17   45 1
    34   17   46 1
    35   18   19 1
    36   18   47 1
    37   18   48 1
    38   19   20 2
    39   19   21 1
    40   23   24 2
    41   23   25 1
    42   25   30 ar
    43   25   26 ar
    44   26   27 ar
    45   26   49 1
    46   27   28 ar
    47   27   50 1
    48   28   29 ar
    49   28   31 1
    50   29   30 ar
    51   29   51 1
    52   30   52 1
    53   31   32 2
    54   31   33 1
@<TRIPOS>MOLECULE
ZINC09972889
   47    49     0     0     0
SMALL
USER_CHARGES
(2R)-3-[4-[(Z)-[2-(4-bromoanilino)-4-oxo-thiazol-5-ylidene]methyl]-2-methoxy-phenoxy]-2-methyl-propanoic acid
@<TRIPOS>ATOM
      1 C1         -4.0730    0.6829   -3.2856 C.3       1 <0>        -0.1223
      2 C2         -3.9756    0.6787   -1.7587 C.3       1 <0>        -0.1303
      3 H1         -4.0169    1.7101   -1.3784 H         1 <0>         0.0795
      4 C3         -2.6620    0.0196   -1.3333 C.3       1 <0>         0.0772
      5 O1         -1.5629    0.8161   -1.7801 O.3       1 <0>        -0.3047
      6 C4         -0.3155    0.3683   -1.4822 C.ar      1 <0>         0.1247
      7 C5         -0.1560   -0.8152   -0.7734 C.ar      1 <0>        -0.1729
      8 C6          1.1062   -1.2779   -0.4735 C.ar      1 <0>        -0.0894
      9 C7          2.2325   -0.5537   -0.8835 C.ar      1 <0>        -0.0765
     10 C8          2.0701    0.6399   -1.5978 C.ar      1 <0>        -0.1523
     11 C9          0.8008    1.0955   -1.8941 C.ar      1 <0>         0.0843
     12 O2          0.6392    2.2536   -2.5884 O.3       1 <0>        -0.3053
     13 C10         1.8262    2.9470   -2.9787 C.3       1 <0>         0.0242
     14 C11         3.5792   -1.0444   -0.5659 C.2       1 <0>        -0.0063
     15 C12         3.7349   -2.1290    0.2351 C.2       1 <0>        -0.2010
     16 C13         4.9524   -2.9161    0.5410 C.2       1 <0>         0.5350
     17 O3          6.0376   -2.6382    0.0560 O.2       1 <0>        -0.5424
     18 N1          4.7997   -3.9299    1.3640 N.2       1 <0>        -0.7181
     19 C14         3.6290   -4.2417    1.8972 C.2       1 <0>         0.4283
     20 S1          2.5298   -3.0054    1.2241 S.3       1 <0>        -0.0914
     21 N2          3.3329   -5.2634    2.7619 N.2       1 <0>        -0.5748
     22 C15         4.3363   -6.1487    3.1679 C.ar      1 <0>         0.1812
     23 C16         5.4246   -6.3938    2.3403 C.ar      1 <0>        -0.1523
     24 C17         6.4171   -7.2639    2.7465 C.ar      1 <0>        -0.0759
     25 C18         6.3223   -7.9004    3.9715 C.ar      1 <0>        -0.1395
     26 C19         5.2363   -7.6628    4.7953 C.ar      1 <0>        -0.0792
     27 C20         4.2438   -6.7890    4.3970 C.ar      1 <0>        -0.1410
     28 Br1         7.6798   -9.0966    4.5210 Br        1 <0>        -0.0924
     29 C21        -5.1346   -0.0938   -1.1835 C.2       1 <0>         0.4721
     30 O4         -4.9309   -1.0713   -0.5031 O.co2     1 <0>        -0.6372
     31 O5         -6.3932    0.3039   -1.4270 O.co2     1 <0>        -0.7657
     32 H2         -5.0174    1.1568   -3.5914 H         1 <0>         0.0597
     33 H3         -4.0446   -0.3519   -3.6576 H         1 <0>         0.0446
     34 H4         -3.2270    1.2468   -3.7054 H         1 <0>         0.0505
     35 H5         -2.6322   -0.0644   -0.2369 H         1 <0>         0.0671
     36 H6         -2.5935   -0.9833   -1.7799 H         1 <0>         0.0638
     37 H7         -1.0239   -1.3745   -0.4568 H         1 <0>         0.1441
     38 H8          1.2272   -2.1987    0.0779 H         1 <0>         0.1445
     39 H9          2.9353    1.2021   -1.9167 H         1 <0>         0.1350
     40 H10         1.5535    3.8597   -3.5288 H         1 <0>         0.0959
     41 H11         2.4346    2.2973   -3.6250 H         1 <0>         0.0526
     42 H12         2.4041    3.2177   -2.0827 H         1 <0>         0.0526
     43 H13         4.4621   -0.5331   -0.9771 H         1 <0>         0.1460
     44 H14         5.4969   -5.9008    1.3821 H         1 <0>         0.1483
     45 H15         7.2661   -7.4510    2.1057 H         1 <0>         0.1162
     46 H16         5.1649   -8.1609    5.7509 H         1 <0>         0.1194
     47 H17         3.3967   -6.6034    5.0408 H         1 <0>         0.1240
@<TRIPOS>BOND
     1    1    2 1
     2    1   32 1
     3    1   33 1
     4    1   34 1
     5    2    3 1
     6    2    4 1
     7    2   29 1
     8    4    5 1
     9    4   35 1
    10    4   36 1
    11    5    6 1
    12    6   11 ar
    13    6    7 ar
    14    7    8 ar
    15    7   37 1
    16    8    9 ar
    17    8   38 1
    18    9   10 ar
    19    9   14 1
    20   10   11 ar
    21   10   39 1
    22   11   12 1
    23   12   13 1
    24   13   40 1
    25   13   41 1
    26   13   42 1
    27   14   15 2
    28   14   43 1
    29   15   20 1
    30   15   16 1
    31   16   17 2
    32   16   18 1
    33   18   19 2
    34   19   20 1
    35   19   21 1
    36   21   22 1
    37   22   27 ar
    38   22   23 ar
    39   23   24 ar
    40   23   44 1
    41   24   25 ar
    42   24   45 1
    43   25   26 ar
    44   25   28 1
    45   26   27 ar
    46   26   46 1
    47   27   47 1
    48   29   30 2
    49   29   31 1
@<TRIPOS>MOLECULE
ZINC13092711
   45    47     0     0     0
SMALL
USER_CHARGES

@<TRIPOS>ATOM
      1 C1          0.1101    1.8348   -0.2855 C.ar      1 <0>        -0.1155
      2 C2          1.3698    2.3940   -0.1786 C.ar      1 <0>        -0.1223
      3 C3          2.4843    1.5790   -0.1118 C.ar      1 <0>        -0.0618
      4 C4          2.3391    0.2048   -0.1514 C.ar      1 <0>        -0.0756
      5 C5          1.0794   -0.3543   -0.2574 C.ar      1 <0>        -0.0963
      6 C6         -0.0351    0.4607   -0.3256 C.ar      1 <0>        -0.1290
      7 C7          3.5543   -0.6836   -0.0796 C.3       1 <0>        -0.0650
      8 H1          4.4503   -0.0680   -0.0000 H         1 <0>         0.1266
      9 C8          3.6338   -1.5277   -1.3255 C.2       1 <0>         0.5508
     10 O1          3.1718   -2.6491   -1.3287 O.2       1 <0>        -0.4913
     11 N1          4.2182   -1.0364   -2.4361 N.am      1 <0>        -0.6672
     12 C9          4.3911   -1.8563   -3.5567 C.ar      1 <0>         0.1883
     13 C10         4.3237   -1.3131   -4.8329 C.ar      1 <0>        -0.1360
     14 C11         4.4954   -2.1252   -5.9384 C.ar      1 <0>        -0.0033
     15 C12         4.7342   -3.4783   -5.7740 C.ar      1 <0>        -0.1247
     16 C13         4.8014   -4.0221   -4.5033 C.ar      1 <0>        -0.0015
     17 C14         4.6362   -3.2134   -3.3945 C.ar      1 <0>        -0.1109
     18 Cl1         5.1006   -5.7202   -4.3015 Cl        1 <0>        -0.0525
     19 Cl2         4.4107   -1.4470   -7.5342 Cl        1 <0>        -0.0580
     20 S1          3.4301   -1.7615    1.3742 S.3       1 <0>         0.0312
     21 C15         3.4955   -0.6474    2.7377 C.ar      1 <0>         0.2514
     22 N2          3.4277   -1.1211    3.9760 N.ar      1 <0>        -0.5771
     23 C16         3.4775   -0.2764    5.0002 C.ar      1 <0>         0.4210
     24 O2          3.4110   -0.7314    6.2750 O.3       1 <0>        -0.6602
     25 C17         3.6000    1.0886    4.7374 C.ar      1 <0>        -0.0378
     26 N3          3.6628    1.5005    3.4851 N.ar      1 <0>        -0.2042
     27 N4          3.6173    0.6557    2.5151 N.ar      1 <0>        -0.3963
     28 C18         3.6595    2.0808    5.8701 C.3       1 <0>        -0.0100
     29 C19         5.1166    2.2938    6.2855 C.3       1 <0>        -0.1645
     30 C20         5.1760    3.2860    7.4183 C.2       1 <0>         0.4973
     31 O3          4.1483    3.7772    7.8530 O.co2     1 <0>        -0.7012
     32 O4          6.2519    3.5974    7.9000 O.co2     1 <0>        -0.7190
     33 H2         -0.7610    2.4714   -0.3332 H         1 <0>         0.1160
     34 H3          1.4832    3.4675   -0.1477 H         1 <0>         0.1210
     35 H4          3.4685    2.0158   -0.0291 H         1 <0>         0.1274
     36 H5          0.9660   -1.4279   -0.2886 H         1 <0>         0.1258
     37 H6         -1.0193    0.0238   -0.4087 H         1 <0>         0.1176
     38 H7          4.5190   -0.1145   -2.4586 H         1 <0>         0.4198
     39 H8          4.1370   -0.2572   -4.9617 H         1 <0>         0.1450
     40 H9          4.8680   -4.1110   -6.6390 H         1 <0>         0.1434
     41 H10         4.6935   -3.6375   -2.4029 H         1 <0>         0.1568
     42 H11         3.2320    3.0294    5.5451 H         1 <0>         0.0608
     43 H12         3.0920    1.6982    6.7184 H         1 <0>         0.0760
     44 H13         5.5441    1.3453    6.6106 H         1 <0>         0.0557
     45 H14         5.6840    2.6764    5.4372 H         1 <0>         0.0493
@<TRIPOS>BOND
     1    1    6 ar
     2    1    2 ar
     3    1   33 1
     4    2    3 ar
     5    2   34 1
     6    3    4 ar
     7    3   35 1
     8    4    5 ar
     9    4    7 1
    10    5    6 ar
    11    5   36 1
    12    6   37 1
    13    7    8 1
    14    7    9 1
    15    7   20 1
    16    9   10 2
    17    9   11 am
    18   11   12 1
    19   11   38 1
    20   12   17 ar
    21   12   13 ar
    22   13   14 ar
    23   13   39 1
    24   14   15 ar
    25   14   19 1
    26   15   16 ar
    27   15   40 1
    28   16   17 ar
    29   16   18 1
    30   17   41 1
    31   20   21 1
    32   21   22 ar
    33   21   27 ar
    34   22   23 ar
    35   23   24 1
    36   23   25 ar
    37   25   26 ar
    38   25   28 1
    39   26   27 ar
    40   28   29 1
    41   28   42 1
    42   28   43 1
    43   29   30 1
    44   29   44 1
    45   29   45 1
    46   30   31 2
    47   30   32 1
@<TRIPOS>MOLECULE
ZINC16691682
   56    59     0     0     0
SMALL
USER_CHARGES

@<TRIPOS>ATOM
      1 C1          1.1864    1.6513   -0.1834 C.3       1 <0>        -0.1500
      2 C2          1.5778    0.1740   -0.2544 C.3       1 <0>         0.0530
      3 O1          0.6037   -0.5407   -1.0176 O.3       1 <0>        -0.3189
      4 C3          0.8036   -1.8758   -1.1782 C.ar      1 <0>         0.1193
      5 C4          1.9118   -2.4846   -0.6074 C.ar      1 <0>        -0.1996
      6 C5          2.1153   -3.8406   -0.7701 C.ar      1 <0>        -0.0526
      7 C6          1.2106   -4.5947   -1.5052 C.ar      1 <0>         0.1270
      8 C7          0.1018   -3.9850   -2.0762 C.ar      1 <0>        -0.0661
      9 C8         -0.1038   -2.6300   -1.9081 C.ar      1 <0>        -0.1437
     10 N1          1.4171   -5.9722   -1.6712 N.am      1 <0>        -0.5304
     11 C9          1.7402   -6.4517   -2.8913 C.2       1 <0>         0.5668
     12 O2          1.8551   -5.7089   -3.8484 O.2       1 <0>        -0.5248
     13 C10         1.9498   -7.9054   -3.0258 C.2       1 <0>        -0.2846
     14 C11         2.2835   -8.4788   -4.2383 C.2       1 <0>         0.0669
     15 C12         2.2654   -9.9334   -4.3889 C.ar      1 <0>        -0.1310
     16 C13         1.1789  -10.6785   -3.9050 C.ar      1 <0>         0.0248
     17 C14         1.1681  -12.0363   -4.0486 C.ar      1 <0>        -0.1654
     18 C15         2.2313  -12.6815   -4.6734 C.ar      1 <0>         0.1549
     19 C16         3.3116  -11.9484   -5.1554 C.ar      1 <0>        -0.2312
     20 C17         3.3318  -10.5895   -5.0231 C.ar      1 <0>        -0.0477
     21 O3          2.2148  -14.0306   -4.8126 O.3       1 <0>        -0.3049
     22 C18         3.3373  -14.6294   -5.4632 C.3       1 <0>         0.1087
     23 C19         3.1438  -16.1226   -5.5260 C.ar      1 <0>        -0.1104
     24 C20         3.6025  -16.9205   -4.4925 C.ar      1 <0>        -0.1119
     25 C21         3.4293  -18.2878   -4.5434 C.ar      1 <0>        -0.0900
     26 C22         2.7886  -18.8670   -5.6416 C.ar      1 <0>        -0.1243
     27 C23         2.3277  -18.0551   -6.6812 C.ar      1 <0>        -0.0912
     28 C24         2.5033  -16.6888   -6.6142 C.ar      1 <0>        -0.1133
     29 C25         2.6000  -20.3289   -5.7036 C.2       1 <0>         0.5200
     30 O4          3.0048  -21.0369   -4.7923 O.co2     1 <0>        -0.6875
     31 O5          2.0388  -20.8328   -6.6662 O.co2     1 <0>        -0.6886
     32 C26         1.7869   -8.7212   -1.8027 C.2       1 <0>         0.5360
     33 N2          1.4623   -8.0972   -0.6588 N.2       1 <0>        -0.6673
     34 C27         1.2936   -6.7999   -0.5992 C.2       1 <0>         0.6349
     35 O6          0.9740   -6.2548    0.5908 O.3       1 <0>        -0.6505
     36 O7          1.9431   -9.9300   -1.8324 O.2       1 <0>        -0.5211
     37 H1          1.1404    2.0639   -1.1912 H         1 <0>         0.0640
     38 H2          0.2106    1.7462    0.2930 H         1 <0>         0.0647
     39 H3          1.9294    2.1964    0.3988 H         1 <0>         0.0747
     40 H4          2.5536    0.0791   -0.7307 H         1 <0>         0.0602
     41 H5          1.6238   -0.2386    0.7535 H         1 <0>         0.0616
     42 H6          2.6157   -1.8979   -0.0359 H         1 <0>         0.1275
     43 H7          2.9782   -4.3144   -0.3260 H         1 <0>         0.1254
     44 H8         -0.6021   -4.5711   -2.6484 H         1 <0>         0.1272
     45 H9         -0.9687   -2.1563   -2.3485 H         1 <0>         0.1310
     46 H10         2.5575   -7.8527   -5.0745 H         1 <0>         0.1358
     47 H11         0.3534  -10.1791   -3.4197 H         1 <0>         0.1242
     48 H12         0.3328  -12.6109   -3.6764 H         1 <0>         0.1292
     49 H13         4.1338  -12.4550   -5.6390 H         1 <0>         0.1258
     50 H14         4.1685  -10.0212   -5.4019 H         1 <0>         0.1218
     51 H15         3.4261  -14.2317   -6.4742 H         1 <0>         0.0666
     52 H16         4.2448  -14.4039   -4.9030 H         1 <0>         0.0675
     53 H17         4.0976  -16.4714   -3.6442 H         1 <0>         0.1169
     54 H18         3.7884  -18.9093   -3.7364 H         1 <0>         0.1279
     55 H19         1.8316  -18.4960   -7.5331 H         1 <0>         0.1273
     56 H20         2.1437  -16.0595   -7.4150 H         1 <0>         0.1154
@<TRIPOS>BOND
     1    1    2 1
     2    1   37 1
     3    1   38 1
     4    1   39 1
     5    2    3 1
     6    2   40 1
     7    2   41 1
     8    3    4 1
     9    4    9 ar
    10    4    5 ar
    11    5    6 ar
    12    5   42 1
    13    6    7 ar
    14    6   43 1
    15    7    8 ar
    16    7   10 1
    17    8    9 ar
    18    8   44 1
    19    9   45 1
    20   10   34 1
    21   10   11 am
    22   11   12 2
    23   11   13 1
    24   13   14 2
    25   13   32 1
    26   14   15 1
    27   14   46 1
    28   15   20 ar
    29   15   16 ar
    30   16   17 ar
    31   16   47 1
    32   17   18 ar
    33   17   48 1
    34   18   19 ar
    35   18   21 1
    36   19   20 ar
    37   19   49 1
    38   20   50 1
    39   21   22 1
    40   22   23 1
    41   22   51 1
    42   22   52 1
    43   23   28 ar
    44   23   24 ar
    45   24   25 ar
    46   24   53 1
    47   25   26 ar
    48   25   54 1
    49   26   27 ar
    50   26   29 1
    51   27   28 ar
    52   27   55 1
    53   28   56 1
    54   29   30 2
    55   29   31 1
    56   32   33 1
    57   32   36 2
    58   33   34 2
    59   34   35 1
@<TRIPOS>MOLECULE
ZINC13551046
   48    50     0     0     0
SMALL
USER_CHARGES

@<TRIPOS>ATOM
      1 C1          1.2156    0.3393   -1.1320 C.3       1 <0>        -0.1439
      2 C2          0.2070    0.0828   -0.0104 C.3       1 <0>        -0.0524
      3 C3         -0.8756   -0.8771   -0.5077 C.3       1 <0>        -0.1432
      4 C4          0.9149   -0.5274    1.1718 C.ar      1 <0>        -0.0871
      5 C5          1.5803   -1.7314    1.0315 C.ar      1 <0>        -0.1080
      6 C6          2.2304   -2.2930    2.1130 C.ar      1 <0>        -0.0937
      7 C7          2.2153   -1.6472    3.3421 C.ar      1 <0>         0.1527
      8 C8          1.5463   -0.4384    3.4798 C.ar      1 <0>        -0.1012
      9 C9          0.9025    0.1207    2.3932 C.ar      1 <0>        -0.1110
     10 N1          2.8735   -2.2146    4.4413 N.am      1 <0>        -0.5495
     11 C10         2.1481   -2.6973    5.4729 C.2       1 <0>         0.5682
     12 O1          0.9323   -2.6480    5.4642 O.2       1 <0>        -0.5195
     13 C11         2.8796   -3.2874    6.6115 C.2       1 <0>        -0.2484
     14 C12         2.2130   -3.8060    7.7102 C.2       1 <0>         0.0671
     15 C13         2.9580   -4.1621    8.9156 C.ar      1 <0>        -0.0816
     16 C14         3.9016   -3.2702    9.4504 C.ar      1 <0>         0.0278
     17 C15         4.5975   -3.6102   10.5816 C.ar      1 <0>        -0.0656
     18 C16         4.3702   -4.8370   11.2002 C.ar      1 <0>         0.1483
     19 C17         3.4360   -5.7260   10.6745 C.ar      1 <0>        -0.0731
     20 C18         2.7292   -5.3951    9.5473 C.ar      1 <0>        -0.0650
     21 Cl1         3.1602   -7.2531   11.4527 Cl        1 <0>        -0.0590
     22 O2          5.0620   -5.1676   12.3194 O.3       1 <0>        -0.2912
     23 C19         4.4847   -4.7954   13.5725 C.3       1 <0>         0.0091
     24 C20         5.3874   -5.2417   14.6937 C.2       1 <0>         0.5054
     25 O3          6.4285   -5.8245   14.4429 O.co2     1 <0>        -0.6689
     26 O4          5.0765   -5.0200   15.8516 O.co2     1 <0>        -0.6982
     27 Cl2         5.7649   -2.5092   11.2440 Cl        1 <0>        -0.0530
     28 C21         4.3485   -3.3004    6.5265 C.2       1 <0>         0.4896
     29 O5          5.0932   -3.8217    7.5240 O.3       1 <0>        -0.6026
     30 N2          4.9219   -2.7899    5.4503 N.2       1 <0>        -0.6588
     31 C22         4.2131   -2.2742    4.4489 C.2       1 <0>         0.6672
     32 O6          4.8145   -1.8275    3.4884 O.2       1 <0>        -0.5666
     33 H1          1.6748   -0.6032   -1.4303 H         1 <0>         0.0571
     34 H2          0.7036    0.7806   -1.9871 H         1 <0>         0.0530
     35 H3          1.9869    1.0231   -0.7777 H         1 <0>         0.0568
     36 H4         -0.2522    1.0253    0.2878 H         1 <0>         0.0746
     37 H5         -0.4164   -1.8196   -0.8060 H         1 <0>         0.0566
     38 H6         -1.5941   -1.0599    0.2913 H         1 <0>         0.0560
     39 H7         -1.3876   -0.4358   -1.3628 H         1 <0>         0.0532
     40 H8          1.5913   -2.2334    0.0753 H         1 <0>         0.1214
     41 H9          2.7496   -3.2336    2.0029 H         1 <0>         0.1216
     42 H10         1.5326    0.0661    4.4346 H         1 <0>         0.1201
     43 H11         0.3858    1.0632    2.4986 H         1 <0>         0.1215
     44 H12         1.1428   -3.9470    7.6754 H         1 <0>         0.1430
     45 H13         4.0790   -2.3187    8.9713 H         1 <0>         0.1347
     46 H14         2.0016   -6.0833    9.1433 H         1 <0>         0.1370
     47 H15         4.3662   -3.7125   13.6106 H         1 <0>         0.0500
     48 H16         3.5101   -5.2716   13.6793 H         1 <0>         0.0493
@<TRIPOS>BOND
     1    1    2 1
     2    1   33 1
     3    1   34 1
     4    1   35 1
     5    2    3 1
     6    2    4 1
     7    2   36 1
     8    3   37 1
     9    3   38 1
    10    3   39 1
    11    4    9 ar
    12    4    5 ar
    13    5    6 ar
    14    5   40 1
    15    6    7 ar
    16    6   41 1
    17    7    8 ar
    18    7   10 1
    19    8    9 ar
    20    8   42 1
    21    9   43 1
    22   10   31 am
    23   10   11 am
    24   11   12 2
    25   11   13 1
    26   13   14 2
    27   13   28 1
    28   14   15 1
    29   14   44 1
    30   15   20 ar
    31   15   16 ar
    32   16   17 ar
    33   16   45 1
    34   17   18 ar
    35   17   27 1
    36   18   19 ar
    37   18   22 1
    38   19   20 ar
    39   19   21 1
    40   20   46 1
    41   22   23 1
    42   23   24 1
    43   23   47 1
    44   23   48 1
    45   24   25 2
    46   24   26 1
    47   28   29 1
    48   28   30 2
    49   30   31 1
    50   31   32 2
@<TRIPOS>MOLECULE
ZINC20568958
   52    54     0     0     0
SMALL
USER_CHARGES
(1R,6R)-6-[[4-[(3,5-dichlorophenyl)sulfamoyl]phenyl]carbamoyl]-3,4-dimethyl-cyclohex-3-ene-1-carboxylic acid
@<TRIPOS>ATOM
      1 C1          0.0939    5.8248   -0.1953 C.3       1 <0>        -0.1232
      2 C2          0.3523    4.3672    0.0867 C.2       1 <0>        -0.1426
      3 C3         -0.4673    3.4980   -0.4117 C.2       1 <0>        -0.1150
      4 C4         -0.3348    2.0147   -0.2264 C.3       1 <0>        -0.0589
      5 C5          0.6062    1.7114    0.9416 C.3       1 <0>        -0.1111
      6 H1          0.1226    1.9572    1.8985 H         1 <0>         0.0748
      7 C6          1.8886    2.5326    0.7573 C.3       1 <0>        -0.0769
      8 H2          2.3254    2.3518   -0.2359 H         1 <0>         0.0930
      9 C7          1.5439    4.0136    0.9276 C.3       1 <0>        -0.0685
     10 C8          2.9038    2.1261    1.7941 C.2       1 <0>         0.5257
     11 O1          2.6325    1.2643    2.6033 O.2       1 <0>        -0.4762
     12 N1          4.1132    2.7202    1.8223 N.am      1 <0>        -0.6980
     13 C9          5.0917    2.2730    2.7170 C.ar      1 <0>         0.2019
     14 C10         4.7271    1.8230    3.9791 C.ar      1 <0>        -0.1453
     15 C11         5.6948    1.3773    4.8580 C.ar      1 <0>        -0.0069
     16 C12         7.0267    1.3892    4.4863 C.ar      1 <0>        -0.6822
     17 C13         7.3936    1.8421    3.2323 C.ar      1 <0>        -0.0117
     18 C14         6.4302    2.2837    2.3467 C.ar      1 <0>        -0.1809
     19 S1          8.2589    0.8267    5.6132 S.o2      1 <0>         2.6123
     20 O2          7.6356   -0.1405    6.4470 O.2       1 <0>        -1.0360
     21 O3          9.4140    0.5341    4.8390 O.2       1 <0>        -1.0028
     22 N2          8.6534    2.1070    6.5866 N.2       1 <0>        -1.0979
     23 C15         7.6885    2.6702    7.4248 C.ar      1 <0>         0.2575
     24 C16         7.1304    3.9034    7.1132 C.ar      1 <0>        -0.1463
     25 C17         6.1719    4.4560    7.9418 C.ar      1 <0>        -0.0037
     26 C18         5.7763    3.7870    9.0867 C.ar      1 <0>        -0.1669
     27 C19         6.3348    2.5609    9.4026 C.ar      1 <0>        -0.0019
     28 C20         7.2895    2.0009    8.5746 C.ar      1 <0>        -0.1549
     29 Cl1         5.8355    1.7250   10.8399 Cl        1 <0>        -0.0933
     30 Cl2         5.4691    5.9942    7.5496 Cl        1 <0>        -0.0937
     31 C21         0.9425    0.2424    0.9528 C.2       1 <0>         0.4765
     32 O4          2.0917   -0.1151    0.8457 O.co2     1 <0>        -0.6228
     33 O5         -0.0346   -0.6689    1.0817 O.co2     1 <0>        -0.7823
     34 C22        -1.6262    4.0073   -1.2294 C.3       1 <0>        -0.1172
     35 H3         -0.8069    5.9235   -0.8188 H         1 <0>         0.0663
     36 H4          0.9563    6.2540   -0.7264 H         1 <0>         0.0587
     37 H5         -0.0563    6.3608    0.7535 H         1 <0>         0.0589
     38 H6         -1.3236    1.5819   -0.0145 H         1 <0>         0.0783
     39 H7          0.0730    1.5655   -1.1440 H         1 <0>         0.0683
     40 H8          2.4057    4.6223    0.6166 H         1 <0>         0.0688
     41 H9          1.3178    4.2117    1.9857 H         1 <0>         0.0734
     42 H10         4.3311    3.5567    1.1420 H         1 <0>         0.4200
     43 H11         3.6874    1.8173    4.2715 H         1 <0>         0.1363
     44 H12         5.4114    1.0231    5.8381 H         1 <0>         0.1267
     45 H13         8.4347    1.8501    2.9450 H         1 <0>         0.1317
     46 H14         6.7174    2.6372    1.3675 H         1 <0>         0.1209
     47 H15         7.4418    4.4279    6.2219 H         1 <0>         0.1277
     48 H16         5.0300    4.2223    9.7347 H         1 <0>         0.1255
     49 H17         7.7246    1.0437    8.8213 H         1 <0>         0.1326
     50 H18        -2.2282    3.1567   -1.5817 H         1 <0>         0.0588
     51 H19        -1.2453    4.5702   -2.0943 H         1 <0>         0.0609
     52 H20        -2.2509    4.6667   -0.6090 H         1 <0>         0.0619
@<TRIPOS>BOND
     1    1    2 1
     2    1   35 1
     3    1   36 1
     4    1   37 1
     5    2    9 1
     6    2    3 2
     7    3    4 1
     8    3   34 1
     9    4    5 1
    10    4   38 1
    11    4   39 1
    12    5    6 1
    13    5    7 1
    14    5   31 1
    15    7    8 1
    16    7    9 1
    17    7   10 1
    18    9   40 1
    19    9   41 1
    20   10   11 2
    21   10   12 am
    22   12   13 1
    23   12   42 1
    24   13   18 ar
    25   13   14 ar
    26   14   15 ar
    27   14   43 1
    28   15   16 ar
    29   15   44 1
    30   16   17 ar
    31   16   19 1
    32   17   18 ar
    33   17   45 1
    34   18   46 1
    35   19   20 2
    36   19   21 2
    37   19   22 1
    38   22   23 1
    39   23   28 ar
    40   23   24 ar
    41   24   25 ar
    42   24   47 1
    43   25   26 ar
    44   25   30 1
    45   26   27 ar
    46   26   48 1
    47   27   28 ar
    48   27   29 1
    49   28   49 1
    50   31   32 2
    51   31   33 1
    52   34   50 1
    53   34   51 1
    54   34   52 1
@<TRIPOS>MOLECULE
ZINC38755672
   47    49     0     0     0
SMALL
USER_CHARGES

@<TRIPOS>ATOM
      1 C1          0.9704    2.8848   -3.8482 C.3       1 <0>        -0.6356
      2 S1          1.1926    1.3059   -4.7133 S.o2      1 <0>         2.5275
      3 O1         -0.0035    0.9467   -5.3912 O.2       1 <0>        -1.0226
      4 O2          2.4417    1.2905   -5.3907 O.2       1 <0>        -1.0231
      5 N1          1.3507    0.1797   -3.5096 N.2       1 <0>        -1.0709
      6 C2          1.5392   -1.1606   -3.8314 C.ar      1 <0>         0.3237
      7 C3          1.6004   -1.5525   -5.1656 C.ar      1 <0>        -0.2611
      8 C4          1.7873   -2.8774   -5.4875 C.ar      1 <0>         0.0079
      9 C5          1.9157   -3.8308   -4.4730 C.ar      1 <0>        -0.2474
     10 C6          1.8538   -3.4348   -3.1336 C.ar      1 <0>        -0.0300
     11 C7          1.6720   -2.1067   -2.8178 C.ar      1 <0>        -0.1041
     12 Cl1         1.6015   -1.6124   -1.1552 Cl        1 <0>        -0.0863
     13 C8          2.1155   -5.2515   -4.8150 C.2       1 <0>         0.5748
     14 O3          2.1687   -5.5947   -5.9804 O.2       1 <0>        -0.5322
     15 N2          2.2391   -6.1694   -3.8359 N.am      1 <0>        -0.6794
     16 C9          2.3313   -7.5272   -4.1580 C.ar      1 <0>         0.1931
     17 C10         1.7510   -8.4797   -3.3303 C.ar      1 <0>        -0.1749
     18 C11         1.8438   -9.8198   -3.6512 C.ar      1 <0>        -0.0061
     19 C12         2.5140  -10.2137   -4.7949 C.ar      1 <0>        -0.6372
     20 C13         3.0928   -9.2678   -5.6211 C.ar      1 <0>        -0.0060
     21 C14         2.9983   -7.9258   -5.3092 C.ar      1 <0>        -0.1468
     22 S2          2.6311  -11.9245   -5.2000 S.o2      1 <0>         2.6116
     23 O4          3.7756  -12.0679   -6.0299 O.2       1 <0>        -1.0313
     24 O5          2.4782  -12.6415   -3.9827 O.2       1 <0>        -1.0329
     25 N3          1.3174  -12.2968   -6.1369 N.2       1 <0>        -1.0858
     26 C15         1.1446  -13.5991   -6.6113 C.ar      1 <0>         0.2927
     27 C16         2.0709  -14.5846   -6.2932 C.ar      1 <0>        -0.2631
     28 C17         1.8974  -15.8714   -6.7632 C.ar      1 <0>        -0.0550
     29 C18         0.8032  -16.1803   -7.5502 C.ar      1 <0>        -0.2250
     30 C19        -0.1217  -15.2017   -7.8693 C.ar      1 <0>         0.0158
     31 C20         0.0434  -13.9129   -7.3971 C.ar      1 <0>        -0.1765
     32 Cl2        -1.4935  -15.5940   -8.8581 Cl        1 <0>        -0.1102
     33 H1          0.0786    2.8344   -3.2235 H         1 <0>         0.1168
     34 H2          1.8412    3.0823   -3.2231 H         1 <0>         0.1166
     35 H3          0.8579    3.6864   -4.5782 H         1 <0>         0.1026
     36 H4          1.5009   -0.8160   -5.9492 H         1 <0>         0.1163
     37 H5          1.8343   -3.1805   -6.5230 H         1 <0>         0.1236
     38 H6          1.9523   -4.1689   -2.3477 H         1 <0>         0.1175
     39 H7          2.2642   -5.8883   -2.9079 H         1 <0>         0.4089
     40 H8          1.2281   -8.1728   -2.4366 H         1 <0>         0.1286
     41 H9          1.3929  -10.5610   -3.0080 H         1 <0>         0.1372
     42 H10         3.6158   -9.5787   -6.5134 H         1 <0>         0.1370
     43 H11         3.4465   -7.1872   -5.9574 H         1 <0>         0.1447
     44 H12         2.9263  -14.3442   -5.6792 H         1 <0>         0.1025
     45 H13         2.6175  -16.6374   -6.5160 H         1 <0>         0.1104
     46 H14         0.6703  -17.1874   -7.9170 H         1 <0>         0.1103
     47 H15        -0.6808  -13.1502   -7.6424 H         1 <0>         0.1231
@<TRIPOS>BOND
     1    1    2 1
     2    1   33 1
     3    1   34 1
     4    1   35 1
     5    2    3 2
     6    2    4 2
     7    2    5 1
     8    5    6 1
     9    6   11 ar
    10    6    7 ar
    11    7    8 ar
    12    7   36 1
    13    8    9 ar
    14    8   37 1
    15    9   10 ar
    16    9   13 1
    17   10   11 ar
    18   10   38 1
    19   11   12 1
    20   13   14 2
    21   13   15 am
    22   15   16 1
    23   15   39 1
    24   16   21 ar
    25   16   17 ar
    26   17   18 ar
    27   17   40 1
    28   18   19 ar
    29   18   41 1
    30   19   20 ar
    31   19   22 1
    32   20   21 ar
    33   20   42 1
    34   21   43 1
    35   22   23 2
    36   22   24 2
    37   22   25 1
    38   25   26 1
    39   26   31 ar
    40   26   27 ar
    41   27   28 ar
    42   27   44 1
    43   28   29 ar
    44   28   45 1
    45   29   30 ar
    46   29   46 1
    47   30   31 ar
    48   30   32 1
    49   31   47 1
@<TRIPOS>MOLECULE
ZINC13213874
   45    48     0     0     0
SMALL
USER_CHARGES

@<TRIPOS>ATOM
      1 C1          1.1081   -0.3452    3.2034 C.ar      1 <0>        -0.1484
      2 C2          2.2984    0.3618    3.1650 C.ar      1 <0>        -0.0792
      3 C3          3.1511    0.2357    2.0843 C.ar      1 <0>        -0.1762
      4 C4          2.8200   -0.5992    1.0328 C.ar      1 <0>         0.1407
      5 C5          1.6188   -1.3158    1.0663 C.ar      1 <0>        -0.1706
      6 C6          0.7638   -1.1812    2.1632 C.ar      1 <0>        -0.0388
      7 C7          1.2561   -2.2097   -0.0524 C.2       1 <0>         0.5048
      8 O1          1.9668   -2.2695   -1.0384 O.2       1 <0>        -0.4600
      9 C8          0.0401   -3.0246    0.0252 C.2       1 <0>        -0.5079
     10 C9         -0.0235   -4.3746    0.1058 C.2       1 <0>         0.2765
     11 C10        -1.4398   -4.7911    0.1650 C.2       1 <0>         0.5011
     12 O2         -1.8259   -5.9407    0.2422 O.2       1 <0>        -0.4940
     13 N1         -2.2389   -3.7096    0.1213 N.am      1 <0>        -0.5508
     14 C11        -1.3839   -2.5198    0.0372 C.3       1 <0>         0.2619
     15 H1         -1.5463   -1.8768    0.9022 H         1 <0>         0.0764
     16 C12        -1.6765   -1.7641   -1.2334 C.ar      1 <0>        -0.0578
     17 C13        -2.0274   -2.4509   -2.3809 C.ar      1 <0>        -0.0702
     18 C14        -2.2958   -1.7583   -3.5465 C.ar      1 <0>        -0.1106
     19 C15        -2.2137   -0.3785   -3.5654 C.ar      1 <0>        -0.1012
     20 C16        -1.8632    0.3090   -2.4177 C.ar      1 <0>        -0.0868
     21 C17        -1.5997   -0.3843   -1.2499 C.ar      1 <0>        -0.0882
     22 Br1        -1.7500    2.1965   -2.4431 Br        1 <0>        -0.0720
     23 C18        -3.6364   -3.7176    0.1560 C.ar      1 <0>         0.1619
     24 C19        -4.3401   -2.5197    0.0969 C.ar      1 <0>        -0.1643
     25 C20        -5.7219   -2.5215    0.1308 C.ar      1 <0>        -0.1160
     26 C21        -6.4133   -3.7121    0.2237 C.ar      1 <0>        -0.1170
     27 C22        -5.7163   -4.9216    0.2838 C.ar      1 <0>        -0.1105
     28 C23        -4.3206   -4.9198    0.2437 C.ar      1 <0>        -0.1200
     29 C24        -6.4527   -6.1964    0.3831 C.2       1 <0>         0.5218
     30 O3         -7.6753   -6.1957    0.4130 O.co2     1 <0>        -0.6971
     31 O4         -5.8405   -7.2537    0.4355 O.co2     1 <0>        -0.6802
     32 O5          1.0407   -5.2096    0.1282 O.3       1 <0>        -0.6483
     33 F1          3.6533   -0.7220   -0.0235 F         1 <0>        -0.1226
     34 H2          0.4496   -0.2444    4.0535 H         1 <0>         0.1299
     35 H3          2.5617    1.0155    3.9834 H         1 <0>         0.1282
     36 H4          4.0775    0.7904    2.0610 H         1 <0>         0.1319
     37 H5         -0.1649   -1.7315    2.1961 H         1 <0>         0.1441
     38 H6         -2.0913   -3.5289   -2.3666 H         1 <0>         0.1246
     39 H7         -2.5695   -2.2952   -4.4427 H         1 <0>         0.1276
     40 H8         -2.4228    0.1626   -4.4765 H         1 <0>         0.1251
     41 H9         -1.3296    0.1523   -0.3524 H         1 <0>         0.1279
     42 H10        -3.8050   -1.5844    0.0245 H         1 <0>         0.1136
     43 H11        -6.2624   -1.5876    0.0849 H         1 <0>         0.1122
     44 H12        -7.4930   -3.7090    0.2503 H         1 <0>         0.1210
     45 H13        -3.7760   -5.8516    0.2849 H         1 <0>         0.1575
@<TRIPOS>BOND
     1    1    6 ar
     2    1    2 ar
     3    1   34 1
     4    2    3 ar
     5    2   35 1
     6    3    4 ar
     7    3   36 1
     8    4    5 ar
     9    4   33 1
    10    5    6 ar
    11    5    7 1
    12    6   37 1
    13    7    8 2
    14    7    9 1
    15    9   14 1
    16    9   10 2
    17   10   11 1
    18   10   32 1
    19   11   12 2
    20   11   13 am
    21   13   14 1
    22   13   23 1
    23   14   15 1
    24   14   16 1
    25   16   21 ar
    26   16   17 ar
    27   17   18 ar
    28   17   38 1
    29   18   19 ar
    30   18   39 1
    31   19   20 ar
    32   19   40 1
    33   20   21 ar
    34   20   22 1
    35   21   41 1
    36   23   28 ar
    37   23   24 ar
    38   24   25 ar
    39   24   42 1
    40   25   26 ar
    41   25   43 1
    42   26   27 ar
    43   26   44 1
    44   27   28 ar
    45   27   29 1
    46   28   45 1
    47   29   30 2
    48   29   31 1
@<TRIPOS>MOLECULE
ZINC05316049
   54    57     0     0     0
SMALL
USER_CHARGES

@<TRIPOS>ATOM
      1 C1          1.2844   -0.6810    0.0315 C.3       1 <0>        -0.2000
      2 C2          0.0934   -0.2064    0.8235 C.2       1 <0>         0.4017
      3 O1          0.1851    0.7789    1.5250 O.2       1 <0>        -0.4771
      4 C3         -1.1782   -0.9368    0.7461 C.ar      1 <0>        -0.2217
      5 C4         -1.2847   -2.0781   -0.0587 C.ar      1 <0>        -0.0453
      6 C5         -2.4693   -2.7548   -0.1274 C.ar      1 <0>        -0.1483
      7 C6         -3.5701   -2.3114    0.6012 C.ar      1 <0>         0.2115
      8 C7         -3.4687   -1.1770    1.4027 C.ar      1 <0>        -0.1767
      9 C8         -2.2864   -0.4974    1.4814 C.ar      1 <0>        -0.0336
     10 N1         -4.7751   -3.0035    0.5279 N.am      1 <0>        -0.6658
     11 C9         -4.7751   -4.3399    0.3533 C.2       1 <0>         0.5248
     12 O2         -3.7259   -4.9528    0.3547 O.2       1 <0>        -0.5285
     13 C10        -6.0537   -5.0614    0.1598 C.2       1 <0>         0.2301
     14 O3         -7.2220   -4.3790    0.1583 O.3       1 <0>        -0.6541
     15 C11        -6.0537   -6.4039   -0.0155 C.2       1 <0>        -0.4412
     16 C12        -7.3194   -7.1181   -0.2070 C.2       1 <0>         0.4169
     17 O4         -8.3704   -6.5042   -0.2084 O.2       1 <0>        -0.4461
     18 C13        -7.3193   -8.5811   -0.3981 C.ar      1 <0>        -0.1506
     19 C14        -6.1191   -9.2904   -0.3918 C.ar      1 <0>        -0.0710
     20 C15        -6.1243  -10.6592   -0.5705 C.ar      1 <0>        -0.1738
     21 C16        -7.3172  -11.3419   -0.7576 C.ar      1 <0>        -0.0997
     22 C17        -8.5171  -10.6644   -0.7686 C.ar      1 <0>        -0.1591
     23 C18        -8.5377   -9.2759   -0.5834 C.ar      1 <0>         0.1787
     24 N2         -9.7090   -8.6063   -0.5873 N.2       1 <0>        -0.5021
     25 C19       -10.5665   -8.7830   -1.5738 C.2       1 <0>         0.2803
     26 C20       -10.2035   -9.6030   -2.7324 C.2       1 <0>        -0.4197
     27 C21       -11.1533  -10.0149   -3.6053 C.2       1 <0>         0.2244
     28 O5        -10.8039  -10.7742   -4.6741 O.3       1 <0>        -0.6784
     29 C22       -12.5639   -9.6432   -3.4003 C.2       1 <0>         0.3962
     30 O6        -13.4455  -10.2033   -4.0247 O.2       1 <0>        -0.4548
     31 C23       -12.8943   -8.5840   -2.4284 C.ar      1 <0>        -0.1425
     32 C24       -11.9064   -8.1610   -1.5195 C.ar      1 <0>         0.0090
     33 C25       -12.2025   -7.1675   -0.5940 C.ar      1 <0>        -0.0819
     34 C26       -13.4667   -6.6066   -0.5714 C.ar      1 <0>        -0.1063
     35 C27       -14.4391   -7.0266   -1.4627 C.ar      1 <0>        -0.1358
     36 C28       -14.1599   -8.0052   -2.3937 C.ar      1 <0>        -0.0778
     37 H1          2.1302   -0.0184    0.2149 H         1 <0>         0.0791
     38 H2          1.5438   -1.6945    0.3375 H         1 <0>         0.0926
     39 H3          1.0406   -0.6735   -1.0309 H         1 <0>         0.0923
     40 H4         -0.4316   -2.4225   -0.6244 H         1 <0>         0.1304
     41 H5         -2.5524   -3.6347   -0.7480 H         1 <0>         0.1441
     42 H6         -4.3250   -0.8364    1.9658 H         1 <0>         0.1311
     43 H7         -2.2073    0.3796    2.1067 H         1 <0>         0.1308
     44 H8         -5.6151   -2.5242    0.6024 H         1 <0>         0.4240
     45 H9         -5.1211   -6.9486   -0.0143 H         1 <0>         0.0949
     46 H10        -5.1846   -8.7686   -0.2472 H         1 <0>         0.1254
     47 H11        -5.1913  -11.2033   -0.5650 H         1 <0>         0.1091
     48 H12        -7.3054  -12.4129   -0.8962 H         1 <0>         0.1093
     49 H13        -9.4411  -11.2039   -0.9157 H         1 <0>         0.1201
     50 H14        -9.1719   -9.8804   -2.8915 H         1 <0>         0.1155
     51 H15       -11.4488   -6.8345    0.1042 H         1 <0>         0.1479
     52 H16       -13.6972   -5.8347    0.1479 H         1 <0>         0.1232
     53 H17       -15.4218   -6.5795   -1.4332 H         1 <0>         0.1203
     54 H18       -14.9236   -8.3282   -3.0856 H         1 <0>         0.1277
@<TRIPOS>BOND
     1    1    2 1
     2    1   37 1
     3    1   38 1
     4    1   39 1
     5    2    3 2
     6    2    4 1
     7    4    9 ar
     8    4    5 ar
     9    5    6 ar
    10    5   40 1
    11    6    7 ar
    12    6   41 1
    13    7    8 ar
    14    7   10 1
    15    8    9 ar
    16    8   42 1
    17    9   43 1
    18   10   11 am
    19   10   44 1
    20   11   12 2
    21   11   13 1
    22   13   14 1
    23   13   15 2
    24   15   16 1
    25   15   45 1
    26   16   17 2
    27   16   18 1
    28   18   23 ar
    29   18   19 ar
    30   19   20 ar
    31   19   46 1
    32   20   21 ar
    33   20   47 1
    34   21   22 ar
    35   21   48 1
    36   22   23 ar
    37   22   49 1
    38   23   24 1
    39   24   25 2
    40   25   32 1
    41   25   26 1
    42   26   27 2
    43   26   50 1
    44   27   28 1
    45   27   29 1
    46   29   30 2
    47   29   31 1
    48   31   36 ar
    49   31   32 ar
    50   32   33 ar
    51   33   34 ar
    52   33   51 1
    53   34   35 ar
    54   34   52 1
    55   35   36 ar
    56   35   53 1
    57   36   54 1
@<TRIPOS>MOLECULE
ZINC33319967
   56    59     0     0     0
SMALL
USER_CHARGES

@<TRIPOS>ATOM
      1 C1         -1.0286    1.6053   -1.4803 C.3       1 <0>        -0.1503
      2 C2         -0.4773    0.1871   -1.3201 C.3       1 <0>         0.0530
      3 O1         -1.1052   -0.6780   -2.2686 O.3       1 <0>        -0.3182
      4 C3         -0.7252   -1.9833   -2.2594 C.ar      1 <0>         0.1222
      5 C4          0.2280   -2.4217   -1.3518 C.ar      1 <0>        -0.1992
      6 C5          0.6142   -3.7474   -1.3421 C.ar      1 <0>        -0.0566
      7 C6          0.0481   -4.6416   -2.2406 C.ar      1 <0>         0.1206
      8 C7         -0.9060   -4.2025   -3.1483 C.ar      1 <0>        -0.0634
      9 C8         -1.2951   -2.8776   -3.1539 C.ar      1 <0>        -0.1427
     10 N1          0.4405   -5.9883   -2.2314 N.am      1 <0>        -0.5467
     11 C9          1.1549   -6.4788   -3.2671 C.2       1 <0>         0.5583
     12 O2          1.4645   -5.7722   -4.2081 O.2       1 <0>        -0.4981
     13 C10         1.5481   -7.9011   -3.2190 C.2       1 <0>        -0.2551
     14 C11         2.2821   -8.4845   -4.2394 C.2       1 <0>         0.0723
     15 C12         2.8728   -7.6503   -5.2836 C.ar      1 <0>        -0.1365
     16 C13         3.5643   -6.4770   -4.9419 C.ar      1 <0>         0.0108
     17 C14         4.1142   -5.7023   -5.9223 C.ar      1 <0>        -0.1629
     18 C15         3.9906   -6.0734   -7.2582 C.ar      1 <0>         0.1544
     19 C16         3.3060   -7.2351   -7.6039 C.ar      1 <0>        -0.2272
     20 C17         2.7564   -8.0217   -6.6329 C.ar      1 <0>        -0.0464
     21 O3          4.5393   -5.2994   -8.2273 O.3       1 <0>        -0.3048
     22 C18         4.3758   -5.7375   -9.5777 C.3       1 <0>         0.1089
     23 C19         5.0463   -4.7596  -10.5077 C.ar      1 <0>        -0.1202
     24 C20         4.3340   -3.6836  -11.0084 C.ar      1 <0>        -0.1027
     25 C21         4.9413   -2.7807  -11.8630 C.ar      1 <0>        -0.1446
     26 C22         6.2626   -2.9475  -12.2223 C.ar      1 <0>        -0.0759
     27 C23         6.9878   -4.0312  -11.7209 C.ar      1 <0>        -0.1395
     28 C24         6.3695   -4.9357  -10.8535 C.ar      1 <0>        -0.0577
     29 C25         8.4014   -4.2164  -12.1005 C.2       1 <0>         0.5214
     30 O4          8.9410   -3.4203  -12.8559 O.co2     1 <0>        -0.6900
     31 O5          9.0335   -5.1660  -11.6599 O.co2     1 <0>        -0.6861
     32 C26         1.1257   -8.6709   -2.0383 C.2       1 <0>         0.4999
     33 O6          1.4439   -9.9767   -1.9154 O.3       1 <0>        -0.6403
     34 N2          0.4278   -8.0538   -1.1004 N.2       1 <0>        -0.6662
     35 C27         0.1046   -6.7660   -1.1919 C.2       1 <0>         0.6692
     36 O7         -0.5363   -6.2675   -0.2837 O.2       1 <0>        -0.5687
     37 H1         -0.8239    1.9629   -2.4894 H         1 <0>         0.0652
     38 H2         -2.1050    1.5982   -1.3087 H         1 <0>         0.0642
     39 H3         -0.5497    2.2651   -0.7569 H         1 <0>         0.0750
     40 H4          0.5991    0.1942   -1.4917 H         1 <0>         0.0613
     41 H5         -0.6821   -0.1705   -0.3110 H         1 <0>         0.0609
     42 H6          0.6683   -1.7260   -0.6529 H         1 <0>         0.1280
     43 H7          1.3568   -4.0884   -0.6360 H         1 <0>         0.1248
     44 H8         -1.3467   -4.8978   -3.8474 H         1 <0>         0.1271
     45 H9         -2.0403   -2.5367   -3.8573 H         1 <0>         0.1313
     46 H10         2.4175   -9.5557   -4.2629 H         1 <0>         0.1501
     47 H11         3.6605   -6.1878   -3.9058 H         1 <0>         0.1200
     48 H12         4.6460   -4.7994   -5.6608 H         1 <0>         0.1278
     49 H13         3.2135   -7.5171   -8.6423 H         1 <0>         0.1272
     50 H14         2.2296   -8.9252   -6.9020 H         1 <0>         0.1249
     51 H15         4.8285   -6.7218   -9.6976 H         1 <0>         0.0701
     52 H16         3.3135   -5.7948   -9.8150 H         1 <0>         0.0669
     53 H17         3.2990   -3.5484  -10.7310 H         1 <0>         0.1145
     54 H18         4.3794   -1.9434  -12.2498 H         1 <0>         0.1160
     55 H19         6.7352   -2.2423  -12.8900 H         1 <0>         0.1262
     56 H20         6.9255   -5.7730  -10.4583 H         1 <0>         0.1276
@<TRIPOS>BOND
     1    1    2 1
     2    1   37 1
     3    1   38 1
     4    1   39 1
     5    2    3 1
     6    2   40 1
     7    2   41 1
     8    3    4 1
     9    4    9 ar
    10    4    5 ar
    11    5    6 ar
    12    5   42 1
    13    6    7 ar
    14    6   43 1
    15    7    8 ar
    16    7   10 1
    17    8    9 ar
    18    8   44 1
    19    9   45 1
    20   10   35 am
    21   10   11 am
    22   11   12 2
    23   11   13 1
    24   13   14 2
    25   13   32 1
    26   14   15 1
    27   14   46 1
    28   15   20 ar
    29   15   16 ar
    30   16   17 ar
    31   16   47 1
    32   17   18 ar
    33   17   48 1
    34   18   19 ar
    35   18   21 1
    36   19   20 ar
    37   19   49 1
    38   20   50 1
    39   21   22 1
    40   22   23 1
    41   22   51 1
    42   22   52 1
    43   23   28 ar
    44   23   24 ar
    45   24   25 ar
    46   24   53 1
    47   25   26 ar
    48   25   54 1
    49   26   27 ar
    50   26   55 1
    51   27   28 ar
    52   27   29 1
    53   28   56 1
    54   29   30 2
    55   29   31 1
    56   32   33 1
    57   32   34 2
    58   34   35 1
    59   35   36 2
@<TRIPOS>MOLECULE
ZINC16917957
   47    49     0     0     0
SMALL
USER_CHARGES
(2R)-2-[4-[(E)-[2-[(2-bromophenyl)amino]-4-oxo-thiazol-5-ylidene]methyl]-2-ethoxy-phenoxy]propanoic acid
@<TRIPOS>ATOM
      1 C1         -2.4164   -0.0326    1.5421 C.3       1 <0>        -0.1509
      2 C2         -1.3284    1.0038    1.2543 C.3       1 <0>         0.0524
      3 O1         -0.0516    0.3622    1.2381 O.3       1 <0>        -0.3007
      4 C3          1.0312    1.1479    0.9943 C.ar      1 <0>         0.0709
      5 C4          0.8667    2.5014    0.7764 C.ar      1 <0>        -0.1472
      6 C5          1.9842    3.3073    0.5256 C.ar      1 <0>        -0.0896
      7 C6          3.2621    2.7354    0.4968 C.ar      1 <0>        -0.0238
      8 C7          3.4163    1.3843    0.7157 C.ar      1 <0>        -0.1962
      9 C8          2.3073    0.5864    0.9648 C.ar      1 <0>         0.1340
     10 O2          2.4661   -0.7454    1.1799 O.3       1 <0>        -0.2785
     11 C9          3.7889   -1.2703    1.0506 C.3       1 <0>         0.0341
     12 H1          4.4649   -0.5036    1.4571 H         1 <0>         0.0759
     13 C10         4.0814   -1.5585   -0.4233 C.3       1 <0>        -0.1529
     14 C11         3.9029   -2.5463    1.8442 C.2       1 <0>         0.4767
     15 O3          2.9268   -3.0116    2.3834 O.co2     1 <0>        -0.6152
     16 O4          5.0887   -3.1659    1.9521 O.co2     1 <0>        -0.7593
     17 C12         1.8164    4.7471    0.2926 C.2       1 <0>         0.0075
     18 C13         2.7442    5.6224    0.7567 C.2       1 <0>        -0.2057
     19 C14         3.9035    5.3916    1.6499 C.2       1 <0>         0.5244
     20 O5          4.1610    4.2858    2.0982 O.2       1 <0>        -0.5093
     21 N1          4.6400    6.4433    1.9328 N.2       1 <0>        -0.7108
     22 C15         4.3722    7.6476    1.4531 C.2       1 <0>         0.4523
     23 S1          2.9158    7.3769    0.4554 S.3       1 <0>        -0.1341
     24 N2          5.0517    8.8189    1.6665 N.2       1 <0>        -0.5642
     25 C16         6.2531    8.8099    2.3821 C.ar      1 <0>         0.1877
     26 C17         6.8474    7.6035    2.7295 C.ar      1 <0>        -0.1800
     27 C18         8.0368    7.5980    3.4313 C.ar      1 <0>        -0.0928
     28 C19         8.6305    8.7918    3.7988 C.ar      1 <0>        -0.1759
     29 C20         8.0394    9.9949    3.4596 C.ar      1 <0>        -0.0838
     30 C21         6.8522   10.0078    2.7524 C.ar      1 <0>        -0.1150
     31 Br1         6.0443   11.6535    2.2887 Br        1 <0>        -0.0738
     32 H2         -3.3992    0.4613    1.5546 H         1 <0>         0.0706
     33 H3         -2.2283   -0.4997    2.5201 H         1 <0>         0.0668
     34 H4         -2.4039   -0.8046    0.7586 H         1 <0>         0.0650
     35 H5         -1.5165    1.4709    0.2763 H         1 <0>         0.0549
     36 H6         -1.3409    1.7758    2.0378 H         1 <0>         0.0560
     37 H7         -0.1216    2.9366    0.7950 H         1 <0>         0.1282
     38 H8          4.1265    3.3535    0.3037 H         1 <0>         0.1292
     39 H9          4.4023    0.9442    0.6933 H         1 <0>         0.1366
     40 H10         5.0997   -1.9626   -0.5228 H         1 <0>         0.0759
     41 H11         3.9983   -0.6271   -1.0025 H         1 <0>         0.0514
     42 H12         3.3566   -2.2931   -0.8041 H         1 <0>         0.0587
     43 H13         0.9387    5.1165   -0.2581 H         1 <0>         0.1298
     44 H14         6.3821    6.6706    2.4471 H         1 <0>         0.1792
     45 H15         8.5014    6.6602    3.6977 H         1 <0>         0.1126
     46 H16         9.5581    8.7844    4.3518 H         1 <0>         0.1121
     47 H17         8.5059   10.9253    3.7478 H         1 <0>         0.1166
@<TRIPOS>BOND
     1    1    2 1
     2    1   32 1
     3    1   33 1
     4    1   34 1
     5    2    3 1
     6    2   35 1
     7    2   36 1
     8    3    4 1
     9    4    9 ar
    10    4    5 ar
    11    5    6 ar
    12    5   37 1
    13    6    7 ar
    14    6   17 1
    15    7    8 ar
    16    7   38 1
    17    8    9 ar
    18    8   39 1
    19    9   10 1
    20   10   11 1
    21   11   12 1
    22   11   13 1
    23   11   14 1
    24   13   40 1
    25   13   41 1
    26   13   42 1
    27   14   15 2
    28   14   16 1
    29   17   18 2
    30   17   43 1
    31   18   23 1
    32   18   19 1
    33   19   20 2
    34   19   21 1
    35   21   22 2
    36   22   23 1
    37   22   24 1
    38   24   25 1
    39   25   30 ar
    40   25   26 ar
    41   26   27 ar
    42   26   44 1
    43   27   28 ar
    44   27   45 1
    45   28   29 ar
    46   28   46 1
    47   29   30 ar
    48   29   47 1
    49   30   31 1
@<TRIPOS>MOLECULE
ZINC13562409
   46    49     0     0     0
SMALL
USER_CHARGES

@<TRIPOS>ATOM
      1 C1         -1.2601    1.5927   -0.2670 C.ar      1 <0>        -0.0488
      2 C2         -0.3981    2.1839    0.6666 C.ar      1 <0>        -0.1165
      3 C3          0.5868    1.4078    1.2925 C.ar      1 <0>        -0.0558
      4 C4          0.7024    0.0709    0.9874 C.ar      1 <0>        -0.1475
      5 C5         -0.1554   -0.5101    0.0598 C.ar      1 <0>         0.1439
      6 C6         -1.1349    0.2548   -0.5640 C.ar      1 <0>        -0.2172
      7 O1         -0.0363   -1.8291   -0.2375 O.3       1 <0>        -0.3033
      8 C7         -0.9493   -2.3624   -1.1988 C.3       1 <0>         0.0606
      9 C8         -0.6636   -3.8517   -1.4020 C.3       1 <0>         0.0583
     10 O2         -0.9351   -4.5585   -0.1901 O.3       1 <0>        -0.3043
     11 C9         -0.7314   -5.9004   -0.2005 C.ar      1 <0>         0.1441
     12 C10        -0.2727   -6.5224   -1.3566 C.ar      1 <0>        -0.2088
     13 C11        -0.0644   -7.8825   -1.3732 C.ar      1 <0>        -0.0546
     14 C12        -0.3154   -8.6411   -0.2218 C.ar      1 <0>        -0.1176
     15 C13        -0.7776   -8.0087    0.9404 C.ar      1 <0>        -0.0490
     16 C14        -0.9768   -6.6471    0.9467 C.ar      1 <0>        -0.1564
     17 C15        -0.0958  -10.0910   -0.2332 C.2       1 <0>         0.0393
     18 C16         0.5065  -10.6802   -1.3035 C.2       1 <0>        -0.1869
     19 S1          1.3251   -9.9341   -2.7080 S.3       1 <0>        -0.1455
     20 C17         1.7733  -11.4518   -3.5392 C.2       1 <0>         0.3727
     21 S2          2.6154  -11.6626   -5.0148 S.2       1 <0>        -0.5406
     22 N1          1.2795  -12.3848   -2.7075 N.2       1 <0>        -0.6244
     23 C18         0.6655  -12.0658   -1.6129 C.2       1 <0>         0.4862
     24 O3          0.1825  -13.0203   -0.7859 O.3       1 <0>        -0.5839
     25 C19        -0.5261    3.6092    0.9871 C.2       1 <0>         0.0371
     26 C20         0.1956    4.1445    2.0109 C.2       1 <0>        -0.1858
     27 S3          1.1974    3.3321    3.2501 S.3       1 <0>        -0.1425
     28 C21         1.7196    4.8049    4.1179 C.2       1 <0>         0.3719
     29 S4          2.7368    4.9432    5.4880 S.2       1 <0>        -0.5382
     30 N2          1.1086    5.7758    3.4178 N.2       1 <0>        -0.6247
     31 C22         0.3676    5.5113    2.3893 C.2       1 <0>         0.4863
     32 O4         -0.2324    6.5036    1.6939 O.3       1 <0>        -0.5850
     33 H1         -2.0238    2.1848   -0.7491 H         1 <0>         0.1319
     34 H2          1.2540    1.8582    2.0125 H         1 <0>         0.1516
     35 H3          1.4611   -0.5281    1.4690 H         1 <0>         0.1364
     36 H4         -1.7988   -0.2020   -1.2831 H         1 <0>         0.1304
     37 H5         -1.9706   -2.2340   -0.8402 H         1 <0>         0.0762
     38 H6         -0.8279   -1.8366   -2.1459 H         1 <0>         0.0869
     39 H7         -1.2996   -4.2383   -2.1984 H         1 <0>         0.0876
     40 H8          0.3830   -3.9870   -1.6749 H         1 <0>         0.0787
     41 H9         -0.0800   -5.9368   -2.2434 H         1 <0>         0.1317
     42 H10         0.2915   -8.3645   -2.2718 H         1 <0>         0.1483
     43 H11        -0.9727   -8.5882    1.8306 H         1 <0>         0.1369
     44 H12        -1.3288   -6.1581    1.8430 H         1 <0>         0.1349
     45 H13        -0.4116  -10.6916    0.6070 H         1 <0>         0.1531
     46 H14        -1.1925    4.2344    0.4114 H         1 <0>         0.1521
@<TRIPOS>BOND
     1    1    6 ar
     2    1    2 ar
     3    1   33 1
     4    2    3 ar
     5    2   25 1
     6    3    4 ar
     7    3   34 1
     8    4    5 ar
     9    4   35 1
    10    5    6 ar
    11    5    7 1
    12    6   36 1
    13    7    8 1
    14    8    9 1
    15    8   37 1
    16    8   38 1
    17    9   10 1
    18    9   39 1
    19    9   40 1
    20   10   11 1
    21   11   16 ar
    22   11   12 ar
    23   12   13 ar
    24   12   41 1
    25   13   14 ar
    26   13   42 1
    27   14   15 ar
    28   14   17 1
    29   15   16 ar
    30   15   43 1
    31   16   44 1
    32   17   18 2
    33   17   45 1
    34   18   23 1
    35   18   19 1
    36   19   20 1
    37   20   21 2
    38   20   22 1
    39   22   23 2
    40   23   24 1
    41   25   26 2
    42   25   46 1
    43   26   31 1
    44   26   27 1
    45   27   28 1
    46   28   29 2
    47   28   30 1
    48   30   31 2
    49   31   32 1
@<TRIPOS>MOLECULE
ZINC13193401
   42    45     0     0     0
SMALL
USER_CHARGES

@<TRIPOS>ATOM
      1 C1          2.3307    1.3336   -3.5930 C.ar      1 <0>        -0.1090
      2 C2          2.7276    2.0707   -2.4910 C.ar      1 <0>        -0.1402
      3 C3          3.1564    1.4304   -1.3471 C.ar      1 <0>        -0.0756
      4 C4          3.1891    0.0350   -1.3024 C.ar      1 <0>        -0.1348
      5 C5          2.7867   -0.7027   -2.4179 C.ar      1 <0>        -0.0637
      6 C6          2.3605   -0.0495   -3.5555 C.ar      1 <0>        -0.1374
      7 C7          3.6480   -0.6584   -0.0797 C.2       1 <0>         0.5077
      8 O1          4.0591   -0.0141    0.8670 O.2       1 <0>        -0.4722
      9 C8          3.6078   -2.1216   -0.0082 C.2       1 <0>        -0.5118
     10 C9          4.6715   -2.9561    0.0689 C.2       1 <0>         0.2794
     11 C10         4.1902   -4.3520    0.1229 C.2       1 <0>         0.5014
     12 O2          4.9034   -5.3331    0.1960 O.2       1 <0>        -0.4901
     13 N1          2.8457   -4.3764    0.0795 N.am      1 <0>        -0.5526
     14 C11         2.3713   -2.9898    0.0004 C.3       1 <0>         0.3017
     15 H1          1.8033   -2.8421   -0.9181 H         1 <0>         0.0916
     16 C12         1.5165   -2.6624    1.1975 C.2       1 <0>        -0.0943
     17 C13         0.3530   -1.9690    1.2515 C.2       1 <0>        -0.1672
     18 C14        -0.2640   -1.7892    2.4758 C.2       1 <0>        -0.1025
     19 C15         0.3132   -2.3119    3.5857 C.2       1 <0>        -0.1771
     20 S1          1.7696   -3.0938    2.9113 S.3       1 <0>         0.1225
     21 Br1        -1.8880   -0.8283    2.6002 Br        1 <0>        -0.0628
     22 C16         2.0425   -5.5201    0.1101 C.ar      1 <0>         0.1604
     23 C17         0.6584   -5.3993    0.0519 C.ar      1 <0>        -0.1652
     24 C18        -0.1408   -6.5266    0.0823 C.ar      1 <0>        -0.1155
     25 C19         0.4289   -7.7803    0.1702 C.ar      1 <0>        -0.1158
     26 C20         1.8186   -7.9134    0.2288 C.ar      1 <0>        -0.1104
     27 C21         2.6259   -6.7747    0.1929 C.ar      1 <0>        -0.1178
     28 C22         2.4309   -9.2526    0.3228 C.2       1 <0>         0.5222
     29 O3          1.7219  -10.2486    0.3496 O.co2     1 <0>        -0.6968
     30 O4          3.6474   -9.3665    0.3740 O.co2     1 <0>        -0.6801
     31 O5          5.9686   -2.5727    0.0923 O.3       1 <0>        -0.6440
     32 H2          1.9919    1.8399   -4.4847 H         1 <0>         0.1166
     33 H3          2.7018    3.1498   -2.5269 H         1 <0>         0.1184
     34 H4          3.4665    2.0068   -0.4881 H         1 <0>         0.1272
     35 H5          2.8099   -1.7821   -2.3901 H         1 <0>         0.1350
     36 H6          2.0491   -0.6187   -4.4188 H         1 <0>         0.1219
     37 H7         -0.0852   -1.5627    0.3519 H         1 <0>         0.1378
     38 H8         -0.0232   -2.2702    4.6111 H         1 <0>         0.1876
     39 H9          0.2062   -4.4209   -0.0170 H         1 <0>         0.1140
     40 H10        -1.2152   -6.4258    0.0374 H         1 <0>         0.1126
     41 H11        -0.1992   -8.6585    0.1940 H         1 <0>         0.1215
     42 H12         3.7008   -6.8709    0.2334 H         1 <0>         0.1576
@<TRIPOS>BOND
     1    1    6 ar
     2    1    2 ar
     3    1   32 1
     4    2    3 ar
     5    2   33 1
     6    3    4 ar
     7    3   34 1
     8    4    5 ar
     9    4    7 1
    10    5    6 ar
    11    5   35 1
    12    6   36 1
    13    7    8 2
    14    7    9 1
    15    9   14 1
    16    9   10 2
    17   10   11 1
    18   10   31 1
    19   11   12 2
    20   11   13 am
    21   13   14 1
    22   13   22 1
    23   14   15 1
    24   14   16 1
    25   16   20 1
    26   16   17 2
    27   17   18 1
    28   17   37 1
    29   18   19 2
    30   18   21 1
    31   19   20 1
    32   19   38 1
    33   22   27 ar
    34   22   23 ar
    35   23   24 ar
    36   23   39 1
    37   24   25 ar
    38   24   40 1
    39   25   26 ar
    40   25   41 1
    41   26   27 ar
    42   26   28 1
    43   27   42 1
    44   28   29 2
    45   28   30 1
@<TRIPOS>MOLECULE
ZINC43726792
   72    75     0     0     0
SMALL
USER_CHARGES

@<TRIPOS>ATOM
      1 C1         -2.5763    1.1829    0.6199 C.3       1 <0>        -0.1428
      2 C2         -2.5836    0.6316    2.0470 C.3       1 <0>        -0.0799
      3 H1         -2.5320    1.4578    2.7560 H         1 <0>         0.0942
      4 C3         -3.8711   -0.1613    2.2808 C.3       1 <0>        -0.1221
      5 C4         -5.0767    0.7697    2.1371 C.3       1 <0>        -0.1176
      6 C5         -6.3448   -0.0113    2.3673 C.2       1 <0>         0.4592
      7 O1         -6.2899   -1.1914    2.6205 O.2       1 <0>        -0.5052
      8 O2         -7.5352    0.6042    2.2912 O.3       1 <0>        -0.3597
      9 C6         -8.6958   -0.1973    2.5208 C.3       1 <0>         0.0336
     10 C7         -1.3751   -0.2874    2.2454 C.3       1 <0>        -0.0636
     11 H2         -0.5378    0.0424    1.6366 H         1 <0>         0.0782
     12 C8         -1.7721   -1.7431    1.8798 C.3       1 <0>        -0.1376
     13 C9         -1.5936   -2.5750    3.1821 C.3       1 <0>        -0.1188
     14 C10        -0.4678   -1.7908    3.8786 C.3       1 <0>        -0.0829
     15 H3          0.4522   -1.9261    3.3038 H         1 <0>         0.0835
     16 C11        -0.9754   -0.3354    3.7228 C.3       1 <0>        -0.0185
     17 C12         0.1516    0.5753    4.1588 C.3       1 <0>        -0.1399
     18 H4          1.0243    0.3981    3.5246 H         1 <0>         0.0662
     19 C13         0.4975    0.2969    5.6252 C.3       1 <0>        -0.0860
     20 C14         0.7802   -1.1615    5.9460 C.3       1 <0>        -0.0552
     21 H5          0.6310   -1.2438    7.0548 H         1 <0>         0.0458
     22 C15        -0.2439   -2.1093    5.3337 C.3       1 <0>        -0.1036
     23 H6         -1.1978   -2.0032    5.8857 H         1 <0>         0.0852
     24 C16         0.1805   -3.5508    5.4896 C.2       1 <0>         0.3735
     25 O3         -0.6198   -4.3961    5.8160 O.2       1 <0>        -0.4766
     26 C17         1.6224   -3.9155    5.2265 C.3       1 <0>        -0.1653
     27 C18         2.4912   -3.0018    6.0982 C.3       1 <0>        -0.0632
     28 H7          2.2212   -3.1511    7.1494 H         1 <0>         0.0607
     29 C19         2.2357   -1.5413    5.7236 C.3       1 <0>        -0.0376
     30 C20         2.6795   -1.2783    4.2906 C.3       1 <0>        -0.1109
     31 C21         4.1482   -1.6546    4.0882 C.3       1 <0>        -0.0895
     32 C22         4.3708   -3.1222    4.4474 C.3       1 <0>        -0.1490
     33 H8          3.7790   -3.7546    3.7852 H         1 <0>         0.0579
     34 C23         3.9591   -3.3724    5.8979 C.3       1 <0>        -0.0840
     35 C24         5.8311   -3.4620    4.2780 C.2       1 <0>         0.4951
     36 O4          6.6166   -2.6074    3.9049 O.co2     1 <0>        -0.6998
     37 O5          6.2257   -4.5912    4.5143 O.co2     1 <0>        -0.7109
     38 C25         3.0939   -0.6763    6.6712 C.3       1 <0>        -0.1489
     39 C26        -0.2575    2.0237    4.0181 C.2       1 <0>         0.5041
     40 O6         -0.6707    2.6374    4.9872 O.co2     1 <0>        -0.7044
     41 O7         -0.1744    2.5782    2.9354 O.co2     1 <0>        -0.7007
     42 C27        -2.2223   -0.0750    4.5685 C.3       1 <0>        -0.1543
     43 H9         -2.6475    0.3578   -0.0888 H         1 <0>         0.0422
     44 H10        -3.4258    1.8524    0.4846 H         1 <0>         0.0435
     45 H11        -1.6503    1.7314    0.4470 H         1 <0>         0.0652
     46 H12        -3.9421   -0.9637    1.5465 H         1 <0>         0.0765
     47 H13        -3.8585   -0.5871    3.2841 H         1 <0>         0.0871
     48 H14        -5.0057    1.5721    2.8714 H         1 <0>         0.1067
     49 H15        -5.0893    1.1955    1.1337 H         1 <0>         0.1056
     50 H16        -8.6503   -0.6241    3.5227 H         1 <0>         0.0581
     51 H17        -9.5885    0.4215    2.4296 H         1 <0>         0.0964
     52 H18        -8.7339   -1.0007    1.7851 H         1 <0>         0.0567
     53 H19        -2.8089   -1.7772    1.5517 H         1 <0>         0.0785
     54 H20        -1.1124   -2.1235    1.1011 H         1 <0>         0.0547
     55 H21        -2.4990   -2.5987    3.7725 H         1 <0>         0.0695
     56 H22        -1.2548   -3.5848    2.9434 H         1 <0>         0.0515
     57 H23         1.3523    0.9234    5.8947 H         1 <0>         0.0582
     58 H24        -0.3297    0.6382    6.2615 H         1 <0>         0.0639
     59 H25         1.7952   -4.9562    5.5008 H         1 <0>         0.0808
     60 H26         1.8572   -3.7662    4.1754 H         1 <0>         0.1027
     61 H27         2.0778   -1.8672    3.5984 H         1 <0>         0.0570
     62 H28         2.5603   -0.2169    4.0605 H         1 <0>         0.0681
     63 H29         4.4013   -1.5114    3.0296 H         1 <0>         0.0494
     64 H30         4.7968   -1.0187    4.6820 H         1 <0>         0.0619
     65 H31         4.6013   -2.8094    6.5702 H         1 <0>         0.0589
     66 H32         4.0887   -4.4393    6.1204 H         1 <0>         0.0567
     67 H33         2.8039   -0.8712    7.7037 H         1 <0>         0.0444
     68 H34         4.1466   -0.9247    6.5364 H         1 <0>         0.0645
     69 H35         2.9372    0.3779    6.4427 H         1 <0>         0.0592
     70 H36        -2.7794   -1.0040    4.6899 H         1 <0>         0.0427
     71 H37        -1.9253    0.3011    5.5474 H         1 <0>         0.0602
     72 H38        -2.8510    0.6634    4.0710 H         1 <0>         0.0705
@<TRIPOS>BOND
     1    1    2 1
     2    1   43 1
     3    1   44 1
     4    1   45 1
     5    2    3 1
     6    2    4 1
     7    2   10 1
     8    4    5 1
     9    4   46 1
    10    4   47 1
    11    5    6 1
    12    5   48 1
    13    5   49 1
    14    6    7 2
    15    6    8 1
    16    8    9 1
    17    9   50 1
    18    9   51 1
    19    9   52 1
    20   10   11 1
    21   10   16 1
    22   10   12 1
    23   12   13 1
    24   12   53 1
    25   12   54 1
    26   13   14 1
    27   13   55 1
    28   13   56 1
    29   14   15 1
    30   14   22 1
    31   14   16 1
    32   16   17 1
    33   16   42 1
    34   17   18 1
    35   17   19 1
    36   17   39 1
    37   19   20 1
    38   19   57 1
    39   19   58 1
    40   20   21 1
    41   20   29 1
    42   20   22 1
    43   22   23 1
    44   22   24 1
    45   24   25 2
    46   24   26 1
    47   26   27 1
    48   26   59 1
    49   26   60 1
    50   27   28 1
    51   27   34 1
    52   27   29 1
    53   29   30 1
    54   29   38 1
    55   30   31 1
    56   30   61 1
    57   30   62 1
    58   31   32 1
    59   31   63 1
    60   31   64 1
    61   32   33 1
    62   32   34 1
    63   32   35 1
    64   34   65 1
    65   34   66 1
    66   35   36 2
    67   35   37 1
    68   38   67 1
    69   38   68 1
    70   38   69 1
    71   39   40 2
    72   39   41 1
    73   42   70 1
    74   42   71 1
    75   42   72 1
@<TRIPOS>MOLECULE
ZINC59565689
   48    50     0     0     0
SMALL
USER_CHARGES

@<TRIPOS>ATOM
      1 C1          0.3817    0.3825    1.4721 C.3       1 <0>        -0.1436
      2 C2         -0.2115    0.3644    0.0619 C.3       1 <0>        -0.0524
      3 C3          0.7223   -0.4053   -0.8743 C.3       1 <0>        -0.1430
      4 C4         -1.5592   -0.3091    0.0924 C.ar      1 <0>        -0.0800
      5 C5         -1.6664   -1.6189    0.5227 C.ar      1 <0>        -0.1070
      6 C6         -2.9001   -2.2390    0.5519 C.ar      1 <0>        -0.0791
      7 C7         -4.0337   -1.5457    0.1489 C.ar      1 <0>         0.1581
      8 C8         -3.9229   -0.2304   -0.2823 C.ar      1 <0>        -0.0918
      9 C9         -2.6870    0.3857   -0.3045 C.ar      1 <0>        -0.1101
     10 N1         -5.2864   -2.1719    0.1768 N.am      1 <0>        -0.5122
     11 C10        -5.7985   -2.6839   -0.9630 C.2       1 <0>         0.5630
     12 O1         -5.1903   -2.6106   -2.0144 O.2       1 <0>        -0.5079
     13 C11        -7.1214   -3.3362   -0.8903 C.2       1 <0>        -0.2850
     14 C12        -7.7192   -3.8878   -2.0113 C.2       1 <0>         0.1095
     15 C13        -9.1303   -4.2669   -1.9751 C.ar      1 <0>        -0.1518
     16 C14       -10.0786   -3.4011   -1.4071 C.ar      1 <0>         0.0586
     17 C15       -11.3952   -3.7609   -1.3762 C.ar      1 <0>        -0.2283
     18 C16       -11.7987   -4.9831   -1.9057 C.ar      1 <0>         0.1967
     19 C17       -10.8636   -5.8469   -2.4701 C.ar      1 <0>        -0.1547
     20 C18        -9.5440   -5.4957   -2.5132 C.ar      1 <0>        -0.0127
     21 Br1       -11.4226   -7.5054   -3.1861 Br        1 <0>        -0.0491
     22 O2        -13.1083   -5.3346   -1.8714 O.3       1 <0>        -0.2627
     23 C19       -14.0148   -4.4029   -1.2780 C.3       1 <0>        -0.0118
     24 C20       -15.4138   -4.9606   -1.3297 C.2       1 <0>         0.5042
     25 O3        -15.6159   -6.0546   -1.8285 O.co2     1 <0>        -0.6682
     26 O4        -16.3436   -4.3178   -0.8727 O.co2     1 <0>        -0.6909
     27 C21        -7.7754   -3.3739    0.4277 C.2       1 <0>         0.4918
     28 O5         -8.9858   -3.9518    0.5818 O.3       1 <0>        -0.5640
     29 N2         -7.1505   -2.8296    1.4566 N.2       1 <0>        -0.5944
     30 C22        -5.9549   -2.2581    1.3360 C.2       1 <0>         0.5463
     31 S1         -5.2331   -1.5900    2.7373 S.2       1 <0>        -0.6709
     32 H1          1.3565    0.8697    1.4501 H         1 <0>         0.0520
     33 H2         -0.2835    0.9308    2.1391 H         1 <0>         0.0581
     34 H3          0.4947   -0.6402    1.8319 H         1 <0>         0.0571
     35 H4         -0.3245    1.3871   -0.2978 H         1 <0>         0.0743
     36 H5          0.2997   -0.4181   -1.8790 H         1 <0>         0.0554
     37 H6          1.6971    0.0819   -0.8964 H         1 <0>         0.0528
     38 H7          0.8353   -1.4280   -0.5146 H         1 <0>         0.0566
     39 H8         -0.7843   -2.1577    0.8360 H         1 <0>         0.1210
     40 H9         -2.9831   -3.2622    0.8874 H         1 <0>         0.1190
     41 H10        -4.8027    0.3114   -0.5966 H         1 <0>         0.1177
     42 H11        -2.6007    1.4100   -0.6359 H         1 <0>         0.1211
     43 H12        -7.1427   -4.0379   -2.9121 H         1 <0>         0.1409
     44 H13        -9.7670   -2.4526   -0.9952 H         1 <0>         0.1219
     45 H14       -12.1254   -3.0956   -0.9396 H         1 <0>         0.1358
     46 H15        -8.8202   -6.1642   -2.9555 H         1 <0>         0.1332
     47 H16       -13.7306   -4.2303   -0.2399 H         1 <0>         0.0650
     48 H17       -13.9785   -3.4613   -1.8260 H         1 <0>         0.0618
@<TRIPOS>BOND
     1    1    2 1
     2    1   32 1
     3    1   33 1
     4    1   34 1
     5    2    3 1
     6    2    4 1
     7    2   35 1
     8    3   36 1
     9    3   37 1
    10    3   38 1
    11    4    9 ar
    12    4    5 ar
    13    5    6 ar
    14    5   39 1
    15    6    7 ar
    16    6   40 1
    17    7    8 ar
    18    7   10 1
    19    8    9 ar
    20    8   41 1
    21    9   42 1
    22   10   30 1
    23   10   11 am
    24   11   12 2
    25   11   13 1
    26   13   14 2
    27   13   27 1
    28   14   15 1
    29   14   43 1
    30   15   20 ar
    31   15   16 ar
    32   16   17 ar
    33   16   44 1
    34   17   18 ar
    35   17   45 1
    36   18   19 ar
    37   18   22 1
    38   19   20 ar
    39   19   21 1
    40   20   46 1
    41   22   23 1
    42   23   24 1
    43   23   47 1
    44   23   48 1
    45   24   25 2
    46   24   26 1
    47   27   28 1
    48   27   29 2
    49   29   30 1
    50   30   31 2
@<TRIPOS>MOLECULE
ZINC13346319
   48    50     0     0     0
SMALL
USER_CHARGES
5-[[2-[1-allyl-5-(4-chlorophenyl)imidazol-2-yl]sulfanylacetyl]amino]benzene-1,3-dicarboxylic acid
@<TRIPOS>ATOM
      1 C1          5.5521    4.0937    1.7764 C.2       1 <0>        -0.1355
      2 C2          4.4372    3.4880    1.4504 C.2       1 <0>        -0.2021
      3 C3          4.2097    3.0421    0.0290 C.3       1 <0>         0.1228
      4 N1          3.9001    1.6103    0.0100 N.pl3     1 <0>        -0.4321
      5 C4          2.6390    1.0393    0.0050 C.2       1 <0>        -0.0031
      6 C5          2.8221   -0.3071   -0.0080 C.2       1 <0>         0.0220
      7 N2          4.1388   -0.5504   -0.0197 N.2       1 <0>        -0.4908
      8 C6          4.7976    0.5866   -0.0058 C.2       1 <0>         0.1985
      9 S1          6.5513    0.7578   -0.0079 S.3       1 <0>         0.0733
     10 C7          7.0373   -0.9856   -0.0322 C.3       1 <0>        -0.1360
     11 C8          8.5408   -1.0879   -0.0372 C.2       1 <0>         0.5176
     12 O1          9.2172   -0.0812   -0.0256 O.2       1 <0>        -0.5008
     13 N3          9.1338   -2.2980   -0.0547 N.am      1 <0>        -0.6519
     14 C9         10.5273   -2.3960    0.0365 C.ar      1 <0>         0.0810
     15 C10        11.3291   -1.4384   -0.5668 C.ar      1 <0>        -0.0756
     16 C11        12.7194   -1.5298   -0.4730 C.ar      1 <0>        -0.1278
     17 C12        13.3013   -2.5908    0.2184 C.ar      1 <0>        -0.0329
     18 C13        12.4925   -3.5543    0.8185 C.ar      1 <0>        -0.1268
     19 C14        11.1029   -3.4536    0.7251 C.ar      1 <0>        -0.1001
     20 C15        13.1048   -4.6807    1.5530 C.2       1 <0>         0.4984
     21 O2         12.3992   -5.5198    2.0761 O.co2     1 <0>        -0.6473
     22 C16        13.5727   -0.5062   -1.1113 C.2       1 <0>         0.4975
     23 O3         13.0648    0.4182   -1.7137 O.co2     1 <0>        -0.6413
     24 C17         1.3458    1.7544    0.0180 C.ar      1 <0>         0.0106
     25 C18         0.1870    1.1155   -0.4271 C.ar      1 <0>        -0.0931
     26 C19        -1.0162    1.7899   -0.4170 C.ar      1 <0>        -0.1006
     27 C20        -1.0781    3.0945    0.0431 C.ar      1 <0>        -0.0417
     28 C21         0.0678    3.7337    0.4857 C.ar      1 <0>        -0.1004
     29 C22         1.2778    3.0717    0.4757 C.ar      1 <0>        -0.1235
     30 Cl1        -2.5973    3.9344    0.0588 Cl        1 <0>        -0.0738
     31 H1          6.3081    4.2735    1.0265 H         1 <0>         0.1077
     32 H2          5.7151    4.4132    2.7951 H         1 <0>         0.1091
     33 H3          3.6811    3.3081    2.2004 H         1 <0>         0.1163
     34 H4          5.1091    3.2272   -0.5582 H         1 <0>         0.1035
     35 H5          3.3760    3.5998   -0.3977 H         1 <0>         0.1061
     36 H6          2.0404   -1.0523   -0.0112 H         1 <0>         0.1752
     37 H7          6.6421   -1.4853    0.8523 H         1 <0>         0.1253
     38 H8          6.6377   -1.4617   -0.9275 H         1 <0>         0.1244
     39 H9          8.5951   -3.1011   -0.1305 H         1 <0>         0.4056
     40 H10        10.8776   -0.6189   -1.1062 H         1 <0>         0.1370
     41 H11        14.3763   -2.6664    0.2888 H         1 <0>         0.1408
     42 H12        10.4756   -4.1998    1.1898 H         1 <0>         0.1224
     43 H13         0.2333    0.0967   -0.7826 H         1 <0>         0.1391
     44 H14        -1.9126    1.2980   -0.7648 H         1 <0>         0.1371
     45 H15         0.0140    4.7528    0.8392 H         1 <0>         0.1350
     46 H16         2.1709    3.5713    0.8209 H         1 <0>         0.1397
     47 O4         14.4454   -4.7771    1.6427 O.co2     1 <0>        -0.7528
     48 O5         14.9139   -0.5982   -1.0250 O.co2     1 <0>        -0.7561
@<TRIPOS>BOND
     1    1    2 2
     2    1   31 1
     3    1   32 1
     4    2    3 1
     5    2   33 1
     6    3    4 1
     7    3   34 1
     8    3   35 1
     9    4    8 1
    10    4    5 1
    11    5    6 2
    12    5   24 1
    13    6    7 1
    14    6   36 1
    15    7    8 2
    16    8    9 1
    17    9   10 1
    18   10   11 1
    19   10   37 1
    20   10   38 1
    21   11   12 2
    22   11   13 am
    23   13   14 1
    24   13   39 1
    25   14   19 ar
    26   14   15 ar
    27   15   16 ar
    28   15   40 1
    29   16   17 ar
    30   16   22 1
    31   17   18 ar
    32   17   41 1
    33   18   19 ar
    34   18   20 1
    35   19   42 1
    36   20   21 2
    37   20   47 1
    38   22   23 2
    39   22   48 1
    40   24   29 ar
    41   24   25 ar
    42   25   26 ar
    43   25   43 1
    44   26   27 ar
    45   26   44 1
    46   27   28 ar
    47   27   30 1
    48   28   29 ar
    49   28   45 1
    50   29   46 1
@<TRIPOS>MOLECULE
ZINC16907183
   43    45     0     0     0
SMALL
USER_CHARGES
(2R)-2-[4-[(E)-[2-[[4-chloro-3-(trifluoromethyl)phenyl]amino]-4-oxo-thiazol-5-ylidene]methyl]phenoxy]propanoic acid
@<TRIPOS>ATOM
      1 C1         -9.5296    6.5007   -1.7523 C.3       1 <0>        -0.1562
      2 C2         -9.5786    6.4179   -0.2253 C.3       1 <0>         0.0390
      3 H1        -10.1538    5.5448    0.1164 H         1 <0>         0.0731
      4 C3        -10.1718    7.6879    0.3279 C.2       1 <0>         0.4747
      5 O1         -9.4971    8.4233    1.0089 O.co2     1 <0>        -0.6147
      6 O2        -11.4498    8.0023    0.0640 O.co2     1 <0>        -0.7597
      7 O3         -8.2546    6.2487    0.2853 O.3       1 <0>        -0.2901
      8 C4         -7.7712    4.9812    0.3367 C.ar      1 <0>         0.1566
      9 C5         -8.5119    3.9351   -0.2018 C.ar      1 <0>        -0.2328
     10 C6         -8.0263    2.6481   -0.1529 C.ar      1 <0>        -0.0549
     11 C7         -6.7839    2.3933    0.4413 C.ar      1 <0>        -0.1229
     12 C8         -6.0449    3.4501    0.9878 C.ar      1 <0>        -0.0011
     13 C9         -6.5375    4.7340    0.9281 C.ar      1 <0>        -0.1674
     14 C10        -6.2608    1.0225    0.4965 C.2       1 <0>         0.0156
     15 C11        -4.9459    0.7878    0.2558 C.2       1 <0>        -0.2112
     16 C12        -3.8919    1.7066   -0.2343 C.2       1 <0>         0.5282
     17 O4         -4.1268    2.8760   -0.4938 O.2       1 <0>        -0.5051
     18 N1         -2.6899    1.1929   -0.3747 N.2       1 <0>        -0.7144
     19 C13        -2.4219   -0.0734   -0.0974 C.2       1 <0>         0.4574
     20 S1         -3.9999   -0.7196    0.4337 S.3       1 <0>        -0.1357
     21 N2         -1.2236   -0.7314   -0.1989 N.2       1 <0>        -0.5839
     22 C14        -0.0639   -0.0248   -0.5329 C.ar      1 <0>         0.1797
     23 C15         0.9989   -0.6798   -1.1421 C.ar      1 <0>        -0.1132
     24 C16         2.1430    0.0202   -1.4703 C.ar      1 <0>        -0.0941
     25 C17         2.2313    1.3734   -1.1929 C.ar      1 <0>        -0.0514
     26 C18         1.1742    2.0283   -0.5862 C.ar      1 <0>        -0.1556
     27 C19         0.0275    1.3330   -0.2557 C.ar      1 <0>        -0.1071
     28 C20         1.2740    3.5018   -0.2863 C.3       1 <0>         0.5071
     29 F1          0.0911    3.9349    0.3223 F         1 <0>        -0.1688
     30 F2          2.3523    3.7304    0.5752 F         1 <0>        -0.1806
     31 F3          1.4711    4.2080   -1.4778 F         1 <0>        -0.1769
     32 Cl1         3.6709    2.2505   -1.6075 Cl        1 <0>        -0.0823
     33 H2         -9.0966    5.5736   -2.1560 H         1 <0>         0.0535
     34 H3         -8.9083    7.3571   -2.0533 H         1 <0>         0.0607
     35 H4        -10.5487    6.6309   -2.1453 H         1 <0>         0.0754
     36 H5         -9.4698    4.1328   -0.6598 H         1 <0>         0.1289
     37 H6         -8.6022    1.8363   -0.5722 H         1 <0>         0.1194
     38 H7         -5.0883    3.2586    1.4511 H         1 <0>         0.1239
     39 H8         -5.9667    5.5503    1.3456 H         1 <0>         0.1270
     40 H9         -6.9346    0.1858    0.7329 H         1 <0>         0.1307
     41 H10         0.9322   -1.7366   -1.3547 H         1 <0>         0.1329
     42 H11         2.9697   -0.4886   -1.9436 H         1 <0>         0.1323
     43 H12        -0.7972    1.8446    0.2181 H         1 <0>         0.1644
@<TRIPOS>BOND
     1    1    2 1
     2    1   33 1
     3    1   34 1
     4    1   35 1
     5    2    3 1
     6    2    4 1
     7    2    7 1
     8    4    5 2
     9    4    6 1
    10    7    8 1
    11    8   13 ar
    12    8    9 ar
    13    9   10 ar
    14    9   36 1
    15   10   11 ar
    16   10   37 1
    17   11   12 ar
    18   11   14 1
    19   12   13 ar
    20   12   38 1
    21   13   39 1
    22   14   15 2
    23   14   40 1
    24   15   20 1
    25   15   16 1
    26   16   17 2
    27   16   18 1
    28   18   19 2
    29   19   20 1
    30   19   21 1
    31   21   22 1
    32   22   27 ar
    33   22   23 ar
    34   23   24 ar
    35   23   41 1
    36   24   25 ar
    37   24   42 1
    38   25   26 ar
    39   25   32 1
    40   26   27 ar
    41   26   28 1
    42   27   43 1
    43   28   29 1
    44   28   30 1
    45   28   31 1
@<TRIPOS>MOLECULE
ZINC39667886
   53    55     0     0     0
SMALL
USER_CHARGES

@<TRIPOS>ATOM
      1 C1          0.0697    2.0131    0.8306 C.3       1 <0>        -0.1662
      2 C2          0.1844    0.5174    0.5296 C.3       1 <0>         0.1587
      3 H1          0.8813    0.3575   -0.2932 H         1 <0>         0.0871
      4 C3         -1.1685   -0.0377    0.1699 C.2       1 <0>        -0.0761
      5 C4         -1.5093   -0.9861    1.0374 C.2       1 <0>        -0.1902
      6 C5         -0.4166   -1.1555    2.0599 C.3       1 <0>         0.1754
      7 H2         -0.8054   -0.9446    3.0561 H         1 <0>         0.0909
      8 N1          0.6502   -0.1983    1.7248 N.pl3     1 <0>        -0.6230
      9 C6          1.8573   -0.0077    2.4026 C.ar      1 <0>         0.2592
     10 C7          2.1553   -0.7744    3.5218 C.ar      1 <0>        -0.1827
     11 C8          3.3493   -0.5843    4.1895 C.ar      1 <0>        -0.0566
     12 C9          4.2480    0.3693    3.7446 C.ar      1 <0>        -0.0959
     13 C10         3.9537    1.1346    2.6299 C.ar      1 <0>        -0.0623
     14 C11         2.7638    0.9447    1.9550 C.ar      1 <0>        -0.1917
     15 Cl1         5.7473    0.6064    4.5870 Cl        1 <0>        -0.0871
     16 C12         0.1290   -2.5839    2.0063 C.3       1 <0>        -0.1762
     17 C13        -2.7567   -1.7489    1.0040 C.2       1 <0>         0.4304
     18 O1         -3.5358   -1.5979    0.0862 O.2       1 <0>        -0.4331
     19 C14        -3.0744   -2.7226    2.1095 C.3       1 <0>        -0.1607
     20 S1         -4.7424   -3.3921    1.8648 S.3       1 <0>        -0.0163
     21 C15        -4.9608   -4.4979    3.2191 C.ar      1 <0>         0.3071
     22 N2         -3.9822   -4.6405    4.1017 N.ar      1 <0>        -0.6234
     23 C16        -4.1160   -5.4655    5.1325 C.ar      1 <0>         0.4457
     24 O2         -3.1134   -5.6082    6.0329 O.3       1 <0>        -0.6910
     25 C17        -5.3030   -6.1831    5.2765 C.ar      1 <0>        -0.2689
     26 C18        -6.2994   -6.0063    4.3350 C.ar      1 <0>         0.1567
     27 N3         -6.1016   -5.1626    3.3334 N.ar      1 <0>        -0.5843
     28 C19        -7.5986   -6.7612    4.4499 C.3       1 <0>        -0.0910
     29 C20        -5.4950   -7.1306    6.4326 C.3       1 <0>        -0.0172
     30 C21        -6.1136   -6.3774    7.6120 C.3       1 <0>        -0.1642
     31 C22        -6.3055   -7.3248    8.7681 C.2       1 <0>         0.4944
     32 O3         -5.9780   -8.4941    8.6588 O.co2     1 <0>        -0.7032
     33 O4         -6.7884   -6.9220    9.8126 O.co2     1 <0>        -0.7218
     34 H3          1.0464    2.4016    1.1193 H         1 <0>         0.0701
     35 H4         -0.2812    2.5368   -0.0586 H         1 <0>         0.0694
     36 H5         -0.6377    2.1665    1.6456 H         1 <0>         0.0649
     37 H6         -1.7710    0.2858   -0.6660 H         1 <0>         0.1601
     38 H7          1.4540   -1.5183    3.8698 H         1 <0>         0.1396
     39 H8          3.5816   -1.1801    5.0598 H         1 <0>         0.1339
     40 H9          4.6569    1.8781    2.2849 H         1 <0>         0.1289
     41 H10         2.5365    1.5392    1.0824 H         1 <0>         0.1312
     42 H11         0.4111   -2.8269    0.9819 H         1 <0>         0.0606
     43 H12         1.0032   -2.6634    2.6525 H         1 <0>         0.0726
     44 H13        -0.6387   -3.2790    2.3464 H         1 <0>         0.0838
     45 H14        -2.3502   -3.5371    2.0955 H         1 <0>         0.1283
     46 H15        -3.0260   -2.2099    3.0702 H         1 <0>         0.1234
     47 H16        -8.3066   -6.1783    5.0390 H         1 <0>         0.0656
     48 H17        -8.0085   -6.9326    3.4545 H         1 <0>         0.0595
     49 H18        -7.4204   -7.7187    4.9393 H         1 <0>         0.0743
     50 H19        -6.1581   -7.9416    6.1315 H         1 <0>         0.0497
     51 H20        -4.5301   -7.5414    6.7297 H         1 <0>         0.0637
     52 H21        -5.4505   -5.5663    7.9131 H         1 <0>         0.0539
     53 H22        -7.0785   -5.9665    7.3149 H         1 <0>         0.0439
@<TRIPOS>BOND
     1    1    2 1
     2    1   34 1
     3    1   35 1
     4    1   36 1
     5    2    3 1
     6    2    8 1
     7    2    4 1
     8    4    5 2
     9    4   37 1
    10    5    6 1
    11    5   17 1
    12    6    7 1
    13    6    8 1
    14    6   16 1
    15    8    9 1
    16    9   14 ar
    17    9   10 ar
    18   10   11 ar
    19   10   38 1
    20   11   12 ar
    21   11   39 1
    22   12   13 ar
    23   12   15 1
    24   13   14 ar
    25   13   40 1
    26   14   41 1
    27   16   42 1
    28   16   43 1
    29   16   44 1
    30   17   18 2
    31   17   19 1
    32   19   20 1
    33   19   45 1
    34   19   46 1
    35   20   21 1
    36   21   27 ar
    37   21   22 ar
    38   22   23 ar
    39   23   24 1
    40   23   25 ar
    41   25   26 ar
    42   25   29 1
    43   26   27 ar
    44   26   28 1
    45   28   47 1
    46   28   48 1
    47   28   49 1
    48   29   30 1
    49   29   50 1
    50   29   51 1
    51   30   31 1
    52   30   52 1
    53   30   53 1
    54   31   32 2
    55   31   33 1
@<TRIPOS>MOLECULE
ZINC13217607
   54    58     0     0     0
SMALL
USER_CHARGES

@<TRIPOS>ATOM
      1 C1         -0.0861    1.0898   -0.3098 C.ar      1 <0>        -0.1212
      2 C2          1.0711    1.8632   -0.3833 C.ar      1 <0>        -0.1270
      3 C3          2.3022    1.2951   -0.2661 C.ar      1 <0>        -0.0921
      4 C4          2.4119   -0.0919   -0.0675 C.ar      1 <0>        -0.0311
      5 C5          1.2351   -0.8784    0.0078 C.ar      1 <0>        -0.0465
      6 C6         -0.0187   -0.2559   -0.1183 C.ar      1 <0>        -0.1106
      7 C7          1.3447   -2.2649    0.2068 C.ar      1 <0>        -0.1257
      8 C8          2.5761   -2.8331    0.3245 C.ar      1 <0>        -0.0998
      9 C9          3.7329   -2.0600    0.2510 C.ar      1 <0>        -0.0999
     10 C10         3.6654   -0.7141    0.0585 C.ar      1 <0>        -0.0463
     11 C11         4.9284    0.1043   -0.0191 C.3       1 <0>         0.2606
     12 H1          4.7832    0.9548   -0.6852 H         1 <0>         0.0778
     13 C12         5.3218    0.5845    1.3584 C.2       1 <0>        -0.5006
     14 C13         6.5438    0.0634    1.6193 C.2       1 <0>         0.2644
     15 C14         6.9818   -0.7484    0.4652 C.2       1 <0>         0.5073
     16 O1          8.0370   -1.3469    0.3941 O.2       1 <0>        -0.5147
     17 N1          6.0397   -0.7268   -0.4968 N.am      1 <0>        -0.5468
     18 C15         6.1071   -1.3797   -1.7306 C.ar      1 <0>         0.1600
     19 C16         5.0595   -1.2670   -2.6361 C.ar      1 <0>        -0.1491
     20 C17         5.1296   -1.9130   -3.8546 C.ar      1 <0>        -0.0908
     21 C18         6.2410   -2.6716   -4.1739 C.ar      1 <0>        -0.0514
     22 C19         7.2856   -2.7859   -3.2749 C.ar      1 <0>        -0.0910
     23 C20         7.2243   -2.1382   -2.0568 C.ar      1 <0>        -0.1537
     24 C21         6.3136   -3.3756   -5.5044 C.3       1 <0>        -0.1507
     25 C22         6.9549   -2.4654   -6.5200 C.2       1 <0>         0.4960
     26 O2          7.3191   -1.3486   -6.1936 O.co2     1 <0>        -0.6836
     27 O3          7.1094   -2.8459   -7.6679 O.co2     1 <0>        -0.7129
     28 O4          7.2517    0.2560    2.7560 O.3       1 <0>        -0.6589
     29 C23         4.5329    1.4483    2.2416 C.2       1 <0>         0.5126
     30 O5          3.5881    0.9895    2.8563 O.2       1 <0>        -0.4599
     31 C24         4.8846    2.8758    2.3856 C.ar      1 <0>        -0.1701
     32 C25         5.8976    3.4321    1.6002 C.ar      1 <0>        -0.0237
     33 C26         6.2205    4.7647    1.7393 C.ar      1 <0>        -0.1502
     34 C27         5.5443    5.5540    2.6547 C.ar      1 <0>        -0.0775
     35 C28         4.5410    5.0132    3.4367 C.ar      1 <0>        -0.1799
     36 C29         4.2013    3.6791    3.3050 C.ar      1 <0>         0.1406
     37 F1          3.2169    3.1520    4.0654 F         1 <0>        -0.1242
     38 H2         -1.0510    1.5662   -0.4018 H         1 <0>         0.1143
     39 H3          0.9895    2.9292   -0.5359 H         1 <0>         0.1159
     40 H4          3.1902    1.9069   -0.3258 H         1 <0>         0.1227
     41 H5         -0.9239   -0.8423   -0.0630 H         1 <0>         0.1190
     42 H6          0.4567   -2.8766    0.2665 H         1 <0>         0.1190
     43 H7          2.6576   -3.8991    0.4775 H         1 <0>         0.1170
     44 H8          4.6977   -2.5357    0.3479 H         1 <0>         0.1172
     45 H9          4.1912   -0.6750   -2.3872 H         1 <0>         0.1145
     46 H10         4.3154   -1.8261   -4.5588 H         1 <0>         0.1126
     47 H11         8.1519   -3.3794   -3.5273 H         1 <0>         0.1138
     48 H12         8.0424   -2.2243   -1.3570 H         1 <0>         0.1444
     49 H13         6.9085   -4.2833   -5.4031 H         1 <0>         0.0642
     50 H14         5.3075   -3.6354   -5.8334 H         1 <0>         0.0639
     51 H15         6.4268    2.8189    0.8858 H         1 <0>         0.1435
     52 H16         7.0036    5.1949    1.1326 H         1 <0>         0.1296
     53 H17         5.8026    6.5976    2.7583 H         1 <0>         0.1279
     54 H18         4.0185    5.6346    4.1489 H         1 <0>         0.1311
@<TRIPOS>BOND
     1    1    6 ar
     2    1    2 ar
     3    1   38 1
     4    2    3 ar
     5    2   39 1
     6    3    4 ar
     7    3   40 1
     8    4   10 ar
     9    4    5 ar
    10    5    6 ar
    11    5    7 ar
    12    6   41 1
    13    7    8 ar
    14    7   42 1
    15    8    9 ar
    16    8   43 1
    17    9   10 ar
    18    9   44 1
    19   10   11 1
    20   11   12 1
    21   11   17 1
    22   11   13 1
    23   13   14 2
    24   13   29 1
    25   14   15 1
    26   14   28 1
    27   15   16 2
    28   15   17 am
    29   17   18 1
    30   18   23 ar
    31   18   19 ar
    32   19   20 ar
    33   19   45 1
    34   20   21 ar
    35   20   46 1
    36   21   22 ar
    37   21   24 1
    38   22   23 ar
    39   22   47 1
    40   23   48 1
    41   24   25 1
    42   24   49 1
    43   24   50 1
    44   25   26 2
    45   25   27 1
    46   29   30 2
    47   29   31 1
    48   31   36 ar
    49   31   32 ar
    50   32   33 ar
    51   32   51 1
    52   33   34 ar
    53   33   52 1
    54   34   35 ar
    55   34   53 1
    56   35   36 ar
    57   35   54 1
    58   36   37 1
@<TRIPOS>MOLECULE
ZINC16929037
   53    55     0     0     0
SMALL
USER_CHARGES

@<TRIPOS>ATOM
      1 C1          0.1717    2.0051    0.0490 C.3       1 <0>        -0.1482
      2 C2          0.1076    0.4765    0.0364 C.3       1 <0>        -0.1012
      3 C3          0.8038   -0.0528   -1.2190 C.3       1 <0>         0.0136
      4 H1          1.8196    0.3400   -1.2640 H         1 <0>         0.0655
      5 C4          0.8491   -1.5584   -1.1713 C.2       1 <0>         0.4784
      6 O1          0.2349   -2.2131   -1.9962 O.co2     1 <0>        -0.6717
      7 O2          1.4999   -2.1216   -0.3077 O.co2     1 <0>        -0.6929
      8 O3          0.0795    0.3655   -2.3776 O.3       1 <0>        -0.2930
      9 C5          0.7629    0.4045   -3.5517 C.ar      1 <0>         0.1601
     10 C6          2.0686   -0.0662   -3.6106 C.ar      1 <0>        -0.1706
     11 C7          2.7706   -0.0299   -4.8017 C.ar      1 <0>        -0.0775
     12 C8          2.1793    0.4737   -5.9413 C.ar      1 <0>        -0.1356
     13 C9          0.8645    0.9500   -5.8935 C.ar      1 <0>        -0.0621
     14 C10         0.1555    0.9075   -4.6885 C.ar      1 <0>        -0.1288
     15 C11         0.2295    1.4883   -7.1052 C.2       1 <0>         0.0691
     16 C12         0.9696    1.6997   -8.2218 C.2       1 <0>        -0.2253
     17 C13         0.5318    2.1001   -9.5747 C.2       1 <0>         0.5625
     18 O4         -0.6414    2.2947   -9.8325 O.2       1 <0>        -0.4996
     19 N1          1.4738    2.2378  -10.4925 N.am      1 <0>        -0.5361
     20 C14         2.7970    2.0133  -10.1805 C.2       1 <0>         0.3548
     21 N2          3.8477    2.1046  -10.9641 N.2       1 <0>        -0.4440
     22 C15         5.0959    1.8402  -10.4688 C.ar      1 <0>         0.0665
     23 C16         5.4824    2.3592   -9.2296 C.ar      1 <0>        -0.1477
     24 C17         6.7411    2.0942   -8.7285 C.ar      1 <0>        -0.1210
     25 C18         7.6274    1.3155   -9.4459 C.ar      1 <0>        -0.0808
     26 C19         7.2551    0.7891  -10.6861 C.ar      1 <0>        -0.1244
     27 C20         5.9829    1.0480  -11.1961 C.ar      1 <0>        -0.0552
     28 C21         8.2035   -0.0430  -11.4515 C.2       1 <0>         0.5229
     29 O5          9.3169   -0.2728  -11.0008 O.co2     1 <0>        -0.6858
     30 O6          7.8762   -0.5026  -12.5364 O.co2     1 <0>        -0.6856
     31 S1          2.7377    1.5764   -8.4504 S.3       1 <0>        -0.0077
     32 C22         1.1068    2.6326  -11.8547 C.3       1 <0>         0.1316
     33 C23         1.1290    4.1353  -11.9655 C.2       1 <0>        -0.1749
     34 C24         1.8569    4.7134  -12.8887 C.2       1 <0>        -0.1604
     35 H2          1.2137    2.3251    0.0492 H         1 <0>         0.0491
     36 H3         -0.3286    2.3971   -0.8365 H         1 <0>         0.0566
     37 H4         -0.3243    2.3823    0.9434 H         1 <0>         0.0492
     38 H5          0.6079    0.0846    0.9220 H         1 <0>         0.0833
     39 H6         -0.9344    0.1566    0.0362 H         1 <0>         0.0660
     40 H7          2.5379   -0.4619   -2.7220 H         1 <0>         0.1322
     41 H8          3.7856   -0.3970   -4.8394 H         1 <0>         0.1289
     42 H9          2.7307    0.5008   -6.8696 H         1 <0>         0.1312
     43 H10        -0.8610    1.2698   -4.6446 H         1 <0>         0.1336
     44 H11        -0.8263    1.7154   -7.1063 H         1 <0>         0.1557
     45 H12         4.7946    2.9695   -8.6631 H         1 <0>         0.1217
     46 H13         7.0342    2.4982   -7.7708 H         1 <0>         0.1208
     47 H14         8.6107    1.1128   -9.0479 H         1 <0>         0.1298
     48 H15         5.6880    0.6404  -12.1517 H         1 <0>         0.1329
     49 H16         1.8188    2.2056  -12.5610 H         1 <0>         0.1026
     50 H17         0.1056    2.2663  -12.0819 H         1 <0>         0.0999
     51 H18         0.5449    4.7357  -11.2838 H         1 <0>         0.1092
     52 H19         1.8728    5.7903  -12.9680 H         1 <0>         0.0991
     53 H20         2.4410    4.1129  -13.5704 H         1 <0>         0.1035
@<TRIPOS>BOND
     1    1    2 1
     2    1   35 1
     3    1   36 1
     4    1   37 1
     5    2    3 1
     6    2   38 1
     7    2   39 1
     8    3    4 1
     9    3    5 1
    10    3    8 1
    11    5    6 2
    12    5    7 1
    13    8    9 1
    14    9   14 ar
    15    9   10 ar
    16   10   11 ar
    17   10   40 1
    18   11   12 ar
    19   11   41 1
    20   12   13 ar
    21   12   42 1
    22   13   14 ar
    23   13   15 1
    24   14   43 1
    25   15   16 2
    26   15   44 1
    27   16   31 1
    28   16   17 1
    29   17   18 2
    30   17   19 am
    31   19   20 1
    32   19   32 1
    33   20   21 2
    34   20   31 1
    35   21   22 1
    36   22   27 ar
    37   22   23 ar
    38   23   24 ar
    39   23   45 1
    40   24   25 ar
    41   24   46 1
    42   25   26 ar
    43   25   47 1
    44   26   27 ar
    45   26   28 1
    46   27   48 1
    47   28   29 2
    48   28   30 1
    49   32   33 1
    50   32   49 1
    51   32   50 1
    52   33   34 2
    53   33   51 1
    54   34   52 1
    55   34   53 1
@<TRIPOS>MOLECULE
ZINC13169570
   34    35     0     0     0
SMALL
USER_CHARGES
5-[[2-(2,4-dibromophenoxy)acetyl]amino]benzene-1,3-dicarboxylic acid
@<TRIPOS>ATOM
      1 C1         10.0783    7.0872    0.4955 C.ar      1 <0>        -0.0333
      2 C2          8.7856    6.6097    0.3933 C.ar      1 <0>        -0.2022
      3 C3          8.5518    5.2430    0.3714 C.ar      1 <0>         0.1806
      4 C4          9.6172    4.3571    0.4581 C.ar      1 <0>        -0.1245
      5 C5         10.9088    4.8391    0.5545 C.ar      1 <0>        -0.0227
      6 C6         11.1391    6.2032    0.5760 C.ar      1 <0>        -0.1325
      7 Br1        12.9069    6.8601    0.7152 Br        1 <0>        -0.0474
      8 Br2         9.3018    2.4927    0.4372 Br        1 <0>        -0.0116
      9 O1          7.2809    4.7714    0.2709 O.3       1 <0>        -0.2645
     10 C7          6.2337    5.7405    0.1916 C.3       1 <0>         0.0401
     11 C8          4.9052    5.0370    0.0859 C.2       1 <0>         0.5003
     12 O2          4.8596    3.8250    0.0792 O.2       1 <0>        -0.4815
     13 N1          3.7677    5.7546   -0.0011 N.am      1 <0>        -0.6569
     14 C9          2.5276    5.1051    0.0121 C.ar      1 <0>         0.0854
     15 C10         1.4686    5.6211   -0.7202 C.ar      1 <0>        -0.1018
     16 C11         0.2301    4.9762   -0.7090 C.ar      1 <0>        -0.1256
     17 C12         0.0588    3.8128    0.0390 C.ar      1 <0>        -0.0336
     18 C13         1.1251    3.2972    0.7736 C.ar      1 <0>        -0.1247
     19 C14         2.3593    3.9504    0.7619 C.ar      1 <0>        -0.0771
     20 C15         0.9482    2.0644    1.5685 C.2       1 <0>         0.4969
     21 O3          1.8781    1.6157    2.2085 O.co2     1 <0>        -0.6406
     22 C16        -0.8976    5.5268   -1.4890 C.2       1 <0>         0.4985
     23 O4         -0.7475    6.5408   -2.1407 O.co2     1 <0>        -0.6476
     24 H1         10.2605    8.1516    0.5129 H         1 <0>         0.1416
     25 H2          7.9579    7.3005    0.3308 H         1 <0>         0.1486
     26 H3         11.7385    4.1505    0.6175 H         1 <0>         0.1474
     27 H4          6.3841    6.3668   -0.6877 H         1 <0>         0.0978
     28 H5          6.2454    6.3622    1.0868 H         1 <0>         0.0992
     29 H6          3.8083    6.7211   -0.0728 H         1 <0>         0.4031
     30 H7          1.6020    6.5228   -1.2993 H         1 <0>         0.1224
     31 H8         -0.8981    3.3121    0.0497 H         1 <0>         0.1413
     32 H9          3.1849    3.5538    1.3341 H         1 <0>         0.1325
     33 O5         -0.2442    1.4380    1.5837 O.co2     1 <0>        -0.7554
     34 O6         -2.0921    4.9043   -1.4773 O.co2     1 <0>        -0.7521
@<TRIPOS>BOND
     1    1    6 ar
     2    1    2 ar
     3    1   24 1
     4    2    3 ar
     5    2   25 1
     6    3    4 ar
     7    3    9 1
     8    4    5 ar
     9    4    8 1
    10    5    6 ar
    11    5   26 1
    12    6    7 1
    13    9   10 1
    14   10   11 1
    15   10   27 1
    16   10   28 1
    17   11   12 2
    18   11   13 am
    19   13   14 1
    20   13   29 1
    21   14   19 ar
    22   14   15 ar
    23   15   16 ar
    24   15   30 1
    25   16   17 ar
    26   16   22 1
    27   17   18 ar
    28   17   31 1
    29   18   19 ar
    30   18   20 1
    31   19   32 1
    32   20   21 2
    33   20   33 1
    34   22   23 2
    35   22   34 1
@<TRIPOS>MOLECULE
ZINC19813644
   49    52     0     0     0
SMALL
USER_CHARGES
3-[[3-[(E)-(4,6-dioxo-1-phenyl-2-thioxo-hexahydropyrimidin-5-ylidene)methyl]phenoxy]methyl]benzoic acid
@<TRIPOS>ATOM
      1 C1          9.0105    9.9980   -9.9972 C.ar      1 <0>        -0.1212
      2 C2          9.4113    8.7760   -9.4890 C.ar      1 <0>        -0.1139
      3 C3          9.0285    8.3961   -8.2174 C.ar      1 <0>        -0.0928
      4 C4          8.2404    9.2427   -7.4492 C.ar      1 <0>         0.1648
      5 C5          7.8348   10.4667   -7.9645 C.ar      1 <0>        -0.0881
      6 C6          8.2252   10.8431   -9.2347 C.ar      1 <0>        -0.1128
      7 N1          7.8505    8.8603   -6.1591 N.am      1 <0>        -0.5120
      8 C7          6.7320    8.1230   -6.0006 C.2       1 <0>         0.5625
      9 O1          6.0626    7.7886   -6.9595 O.2       1 <0>        -0.5081
     10 C8          6.3431    7.7324   -4.6298 C.2       1 <0>        -0.2788
     11 C9          5.2134    6.9799   -4.3882 C.2       1 <0>         0.0667
     12 C10         4.9809    6.4134   -3.0560 C.ar      1 <0>        -0.0470
     13 C11         6.0126    5.7412   -2.3864 C.ar      1 <0>        -0.0651
     14 C12         5.7882    5.2113   -1.1342 C.ar      1 <0>        -0.0916
     15 C13         4.5477    5.3400   -0.5345 C.ar      1 <0>        -0.1905
     16 C14         3.5175    6.0040   -1.1883 C.ar      1 <0>         0.1189
     17 C15         3.7254    6.5370   -2.4479 C.ar      1 <0>        -0.1212
     18 O2          2.3022    6.1254   -0.5922 O.3       1 <0>        -0.3079
     19 C16         2.1557    5.5464    0.7060 C.3       1 <0>         0.1079
     20 C17         0.7525    5.7786    1.2042 C.ar      1 <0>        -0.1181
     21 C18        -0.2388    4.8520    0.9324 C.ar      1 <0>        -0.0999
     22 C19        -1.5297    5.0575    1.3855 C.ar      1 <0>        -0.1455
     23 C20        -1.8382    6.1918    2.1077 C.ar      1 <0>        -0.0684
     24 C21        -0.8419    7.1281    2.3901 C.ar      1 <0>        -0.1186
     25 C22         0.4590    6.9144    1.9296 C.ar      1 <0>        -0.0587
     26 C23        -1.1637    8.3426    3.1672 C.2       1 <0>         0.4899
     27 O3         -0.2959    9.1579    3.4070 O.co2     1 <0>        -0.6281
     28 O4         -2.4197    8.5458    3.6099 O.co2     1 <0>        -0.7579
     29 C24         7.2162    8.1900   -3.5285 C.2       1 <0>         0.5251
     30 O5          6.9607    7.9132   -2.3721 O.3       1 <0>        -0.4923
     31 N2          8.3073    8.9186   -3.8423 N.2       1 <0>        -0.6217
     32 C25         8.5977    9.2354   -5.1117 C.2       1 <0>         0.5444
     33 S1         10.0005   10.1698   -5.4118 S.2       1 <0>        -0.6926
     34 H1          9.3111   10.2928  -10.9917 H         1 <0>         0.1190
     35 H2         10.0240    8.1178  -10.0871 H         1 <0>         0.1216
     36 H3          9.3416    7.4415   -7.8212 H         1 <0>         0.1171
     37 H4          7.2178   11.1252   -7.3712 H         1 <0>         0.1186
     38 H5          7.9132   11.7966   -9.6347 H         1 <0>         0.1223
     39 H6          4.4865    6.8045   -5.1949 H         1 <0>         0.1481
     40 H7          6.9820    5.6385   -2.8514 H         1 <0>         0.1175
     41 H8          6.5838    4.6938   -0.6187 H         1 <0>         0.1230
     42 H9          4.3797    4.9223    0.4472 H         1 <0>         0.1258
     43 H10         2.9237    7.0495   -2.9588 H         1 <0>         0.1310
     44 H11         2.3505    4.4653    0.6494 H         1 <0>         0.0664
     45 H12         2.8724    6.0123    1.3983 H         1 <0>         0.0703
     46 H13        -0.0035    3.9642    0.3642 H         1 <0>         0.1153
     47 H14        -2.2987    4.3306    1.1695 H         1 <0>         0.1176
     48 H15        -2.8474    6.3532    2.4571 H         1 <0>         0.1304
     49 H16         1.2336    7.6365    2.1414 H         1 <0>         0.1287
@<TRIPOS>BOND
     1    1    6 ar
     2    1    2 ar
     3    1   34 1
     4    2    3 ar
     5    2   35 1
     6    3    4 ar
     7    3   36 1
     8    4    5 ar
     9    4    7 1
    10    5    6 ar
    11    5   37 1
    12    6   38 1
    13    7   32 1
    14    7    8 am
    15    8    9 2
    16    8   10 1
    17   10   11 2
    18   10   29 1
    19   11   12 1
    20   11   39 1
    21   12   17 ar
    22   12   13 ar
    23   13   14 ar
    24   13   40 1
    25   14   15 ar
    26   14   41 1
    27   15   16 ar
    28   15   42 1
    29   16   17 ar
    30   16   18 1
    31   17   43 1
    32   18   19 1
    33   19   20 1
    34   19   44 1
    35   19   45 1
    36   20   25 ar
    37   20   21 ar
    38   21   22 ar
    39   21   46 1
    40   22   23 ar
    41   22   47 1
    42   23   24 ar
    43   23   48 1
    44   24   25 ar
    45   24   26 1
    46   25   49 1
    47   26   27 2
    48   26   28 1
    49   29   30 1
    50   29   31 2
    51   31   32 1
    52   32   33 2
@<TRIPOS>MOLECULE
ZINC13252087
   46    48     0     0     0
SMALL
USER_CHARGES
(1S,6R)-6-[[2-chloro-5-[(2-chlorophenyl)sulfamoyl]phenyl]carbamoyl]cyclohex-3-ene-1-carboxylic acid
@<TRIPOS>ATOM
      1 C1         -1.2011    6.3075    9.7530 C.ar      1 <0>        -0.0873
      2 C2         -2.0830    7.3125    9.4001 C.ar      1 <0>        -0.1977
      3 C3         -1.9650    7.9416    8.1745 C.ar      1 <0>        -0.0894
      4 C4         -0.9607    7.5712    7.3001 C.ar      1 <0>        -0.0756
      5 C5         -0.0762    6.5578    7.6499 C.ar      1 <0>         0.2510
      6 C6         -0.1984    5.9286    8.8820 C.ar      1 <0>        -0.2374
      7 N1          0.9372    6.1767    6.7663 N.2       1 <0>        -1.0446
      8 S1          1.3996    4.5894    6.6716 S.o2      1 <0>         2.5958
      9 O1          1.7081    4.1766    7.9959 O.2       1 <0>        -1.0438
     10 O2          2.3384    4.5026    5.6084 O.2       1 <0>        -0.9916
     11 C7         -0.0140    3.6639    6.1720 C.ar      1 <0>        -0.6363
     12 C8         -0.8715    3.1447    7.1247 C.ar      1 <0>        -0.0492
     13 C9         -1.9822    2.4183    6.7372 C.ar      1 <0>        -0.1218
     14 C10        -2.2419    2.2136    5.3950 C.ar      1 <0>        -0.0378
     15 C11        -1.3788    2.7293    4.4359 C.ar      1 <0>         0.1535
     16 C12        -0.2644    3.4583    4.8294 C.ar      1 <0>        -0.0331
     17 N2         -1.6352    2.5192    3.0759 N.am      1 <0>        -0.6591
     18 C13        -1.2025    3.4112    2.1629 C.2       1 <0>         0.5292
     19 O3         -0.5217    4.3530    2.5104 O.2       1 <0>        -0.5175
     20 C14        -1.5646    3.2386    0.7103 C.3       1 <0>        -0.0825
     21 H1         -1.8166    2.1796    0.5521 H         1 <0>         0.0869
     22 C15        -0.3828    3.6435   -0.1763 C.3       1 <0>        -0.0688
     23 C16        -0.1803    5.1292   -0.1171 C.2       1 <0>        -0.1608
     24 C17        -1.0725    5.9666    0.3052 C.2       1 <0>        -0.1219
     25 C18        -2.4284    5.5673    0.8093 C.3       1 <0>        -0.0721
     26 C19        -2.7566    4.1402    0.3653 C.3       1 <0>        -0.1163
     27 H2         -2.9644    4.1119   -0.7145 H         1 <0>         0.0788
     28 C20        -3.9856    3.6543    1.0896 C.2       1 <0>         0.4657
     29 O4         -3.9238    2.6748    1.7943 O.co2     1 <0>        -0.6270
     30 O5         -5.1489    4.3097    0.9518 O.co2     1 <0>        -0.7701
     31 Cl1        -3.6405    1.3075    4.9085 Cl        1 <0>        -0.0579
     32 Cl2        -0.8081    8.3664    5.7645 Cl        1 <0>        -0.0838
     33 H3         -1.2963    5.8184   10.7112 H         1 <0>         0.1050
     34 H4         -2.8660    7.6066   10.0834 H         1 <0>         0.1063
     35 H5         -2.6556    8.7259    7.9018 H         1 <0>         0.1117
     36 H6          0.4898    5.1436    9.1586 H         1 <0>         0.1510
     37 H7         -0.6733    3.3074    8.1738 H         1 <0>         0.1355
     38 H8         -2.6499    2.0141    7.4837 H         1 <0>         0.1298
     39 H9          0.4057    3.8645    4.0862 H         1 <0>         0.1683
     40 H10        -2.1898    1.6261    2.7523 H         1 <0>         0.4417
     41 H11         0.5295    3.1401    0.1764 H         1 <0>         0.0665
     42 H12        -0.5862    3.3477   -1.2161 H         1 <0>         0.0722
     43 H13         0.7982    5.4952   -0.4614 H         1 <0>         0.0950
     44 H14        -0.8566    7.0452    0.3085 H         1 <0>         0.0950
     45 H15        -2.4395    5.6145    1.9082 H         1 <0>         0.0740
     46 H16        -3.1867    6.2540    0.4051 H         1 <0>         0.0704
@<TRIPOS>BOND
     1    1    6 ar
     2    1    2 ar
     3    1   33 1
     4    2    3 ar
     5    2   34 1
     6    3    4 ar
     7    3   35 1
     8    4    5 ar
     9    4   32 1
    10    5    6 ar
    11    5    7 1
    12    6   36 1
    13    7    8 1
    14    8    9 2
    15    8   10 2
    16    8   11 1
    17   11   16 ar
    18   11   12 ar
    19   12   13 ar
    20   12   37 1
    21   13   14 ar
    22   13   38 1
    23   14   15 ar
    24   14   31 1
    25   15   16 ar
    26   15   17 1
    27   16   39 1
    28   17   18 am
    29   17   40 1
    30   18   19 2
    31   18   20 1
    32   20   21 1
    33   20   26 1
    34   20   22 1
    35   22   23 1
    36   22   41 1
    37   22   42 1
    38   23   24 2
    39   23   43 1
    40   24   25 1
    41   24   44 1
    42   25   26 1
    43   25   45 1
    44   25   46 1
    45   26   27 1
    46   26   28 1
    47   28   29 2
    48   28   30 1
@<TRIPOS>MOLECULE
ZINC13217063
   54    57     0     0     0
SMALL
USER_CHARGES

@<TRIPOS>ATOM
      1 C1         -0.0404    1.4634    0.1122 C.3       1 <0>        -0.1083
      2 C2          0.0021   -0.0428    0.0844 C.ar      1 <0>        -0.0887
      3 C3          1.2046   -0.7016    0.2737 C.ar      1 <0>        -0.1239
      4 C4          1.2507   -2.0796    0.2491 C.ar      1 <0>        -0.0802
      5 C5          0.0804   -2.8106    0.0329 C.ar      1 <0>        -0.1075
      6 C6         -1.1293   -2.1396   -0.1569 C.ar      1 <0>        -0.0577
      7 C7         -1.1621   -0.7608   -0.1246 C.ar      1 <0>        -0.1264
      8 C8         -2.3972   -2.9199   -0.3908 C.3       1 <0>        -0.1263
      9 C9          0.1223   -4.2884    0.0047 C.2       1 <0>         0.4675
     10 O1          0.2336   -4.9137    1.0424 O.2       1 <0>        -0.4885
     11 C10         0.0298   -4.9998   -1.2732 C.2       1 <0>        -0.4783
     12 C11        -0.0483   -6.3404   -1.4476 C.2       1 <0>         0.2870
     13 C12        -0.1267   -6.6380   -2.8927 C.2       1 <0>         0.5033
     14 O2         -0.2065   -7.7518   -3.3719 O.2       1 <0>        -0.5119
     15 N1         -0.0973   -5.4938   -3.5997 N.am      1 <0>        -0.5427
     16 C13        -0.0035   -4.3787   -2.6501 C.3       1 <0>         0.2492
     17 H1         -0.8722   -3.7273   -2.7466 H         1 <0>         0.0779
     18 C14         1.2611   -3.5970   -2.8967 C.ar      1 <0>        -0.0386
     19 C15         2.4514   -4.2624   -3.1249 C.ar      1 <0>        -0.0987
     20 C16         3.6121   -3.5468   -3.3512 C.ar      1 <0>        -0.0894
     21 C17         3.5842   -2.1649   -3.3491 C.ar      1 <0>        -0.1616
     22 C18         2.3929   -1.4975   -3.1207 C.ar      1 <0>         0.0945
     23 C19         1.2295   -2.2156   -2.9001 C.ar      1 <0>        -0.1374
     24 F1          2.3645   -0.1468   -3.1180 F         1 <0>        -0.1470
     25 C20        -0.1521   -5.3858   -4.9920 C.ar      1 <0>         0.1586
     26 C21        -0.1064   -4.1354   -5.5956 C.ar      1 <0>        -0.1511
     27 C22        -0.1608   -4.0323   -6.9717 C.ar      1 <0>        -0.0914
     28 C23        -0.2608   -5.1719   -7.7486 C.ar      1 <0>        -0.0508
     29 C24        -0.3066   -6.4182   -7.1510 C.ar      1 <0>        -0.0911
     30 C25        -0.2468   -6.5289   -5.7757 C.ar      1 <0>        -0.1532
     31 C26        -0.3205   -5.0555   -9.2499 C.3       1 <0>        -0.1510
     32 C27         1.0767   -5.0982   -9.8130 C.2       1 <0>         0.4956
     33 O3          2.0324   -5.2127   -9.0646 O.co2     1 <0>        -0.6826
     34 O4          1.2514   -5.0184  -11.0170 O.co2     1 <0>        -0.7130
     35 O5         -0.0532   -7.2609   -0.4563 O.3       1 <0>        -0.6070
     36 H2         -0.2182    1.8031    1.1325 H         1 <0>         0.0628
     37 H3          0.9108    1.8603   -0.2423 H         1 <0>         0.0628
     38 H4         -0.8446    1.8161   -0.5335 H         1 <0>         0.0618
     39 H5          2.1088   -0.1351    0.4408 H         1 <0>         0.1152
     40 H6          2.1898   -2.5925    0.3962 H         1 <0>         0.1177
     41 H7         -2.0977   -0.2406   -0.2672 H         1 <0>         0.1173
     42 H8         -2.9193   -3.0571    0.5561 H         1 <0>         0.0672
     43 H9         -3.0377   -2.3733   -1.0830 H         1 <0>         0.0642
     44 H10        -2.1516   -3.8935   -0.8148 H         1 <0>         0.0832
     45 H11         2.4744   -5.3421   -3.1261 H         1 <0>         0.1210
     46 H12         4.5413   -4.0676   -3.5294 H         1 <0>         0.1271
     47 H13         4.4913   -1.6059   -3.5253 H         1 <0>         0.1263
     48 H14         0.2988   -1.6961   -2.7262 H         1 <0>         0.1282
     49 H15        -0.0286   -3.2449   -4.9894 H         1 <0>         0.1162
     50 H16        -0.1256   -3.0605   -7.4416 H         1 <0>         0.1130
     51 H17        -0.3851   -7.3062   -7.7607 H         1 <0>         0.1140
     52 H18        -0.2778   -7.5027   -5.3098 H         1 <0>         0.1445
     53 H19        -0.9013   -5.8837   -9.6558 H         1 <0>         0.0644
     54 H20        -0.7934   -4.1120   -9.5226 H         1 <0>         0.0640
@<TRIPOS>BOND
     1    1    2 1
     2    1   36 1
     3    1   37 1
     4    1   38 1
     5    2    7 ar
     6    2    3 ar
     7    3    4 ar
     8    3   39 1
     9    4    5 ar
    10    4   40 1
    11    5    6 ar
    12    5    9 1
    13    6    7 ar
    14    6    8 1
    15    7   41 1
    16    8   42 1
    17    8   43 1
    18    8   44 1
    19    9   10 2
    20    9   11 1
    21   11   16 1
    22   11   12 2
    23   12   13 1
    24   12   35 1
    25   13   14 2
    26   13   15 am
    27   15   16 1
    28   15   25 1
    29   16   17 1
    30   16   18 1
    31   18   23 ar
    32   18   19 ar
    33   19   20 ar
    34   19   45 1
    35   20   21 ar
    36   20   46 1
    37   21   22 ar
    38   21   47 1
    39   22   23 ar
    40   22   24 1
    41   23   48 1
    42   25   30 ar
    43   25   26 ar
    44   26   27 ar
    45   26   49 1
    46   27   28 ar
    47   27   50 1
    48   28   29 ar
    49   28   31 1
    50   29   30 ar
    51   29   51 1
    52   30   52 1
    53   31   32 1
    54   31   53 1
    55   31   54 1
    56   32   33 2
    57   32   34 1
@<TRIPOS>MOLECULE
ZINC59303433
   52    54     0     0     0
SMALL
USER_CHARGES

@<TRIPOS>ATOM
      1 C1          1.9991    1.3950   -1.3827 C.3       1 <0>        -0.0890
      2 C2          1.4414    0.0470   -1.0046 C.2       1 <0>         0.0240
      3 C3          1.1334   -0.9367   -1.8656 C.2       1 <0>        -0.1170
      4 C4          0.6276   -2.0547   -1.0560 C.2       1 <0>        -0.2285
      5 C5          0.6805   -1.6243    0.2598 C.2       1 <0>         0.1218
      6 N1          1.1743   -0.3703    0.2701 N.pl3     1 <0>        -0.3590
      7 C6          1.3808    0.3990    1.4237 C.ar      1 <0>         0.0413
      8 C7          2.3259    0.0037    2.3583 C.ar      1 <0>        -0.0709
      9 C8          2.5349    0.7676    3.5097 C.ar      1 <0>        -0.1478
     10 C9          1.7919    1.9290    3.7179 C.ar      1 <0>        -0.0289
     11 C10         0.8428    2.3232    2.7754 C.ar      1 <0>        -0.1475
     12 C11         0.6434    1.5561    1.6244 C.ar      1 <0>        -0.0686
     13 C12         0.0532    3.5511    2.9910 C.2       1 <0>         0.5272
     14 O1          0.2310    4.2238    3.9966 O.co2     1 <0>        -0.6840
     15 O2         -0.7789    3.8961    2.1639 O.co2     1 <0>        -0.6957
     16 C13         3.5403    0.3456    4.5041 C.2       1 <0>         0.5277
     17 O3          4.1913   -0.6733    4.3209 O.co2     1 <0>        -0.6975
     18 O4          3.7225    1.0147    5.5113 O.co2     1 <0>        -0.6835
     19 C14         0.2640   -2.4214    1.4690 C.3       1 <0>        -0.0998
     20 C15         0.1772   -3.3146   -1.5255 C.2       1 <0>         0.1701
     21 C16        -0.6885   -3.3821   -2.5996 C.2       1 <0>        -0.2063
     22 C17        -0.9567   -4.6420   -3.2250 C.1       1 <0>         0.2651
     23 N2         -1.1694   -5.6416   -3.7212 N.1       1 <0>        -0.4435
     24 C18        -1.3343   -2.1612   -3.1003 C.2       1 <0>         0.5692
     25 O5         -1.2094   -1.1140   -2.4934 O.2       1 <0>        -0.4688
     26 N3         -2.0652   -2.2011   -4.2320 N.am      1 <0>        -0.6739
     27 C19        -2.7739   -1.0692   -4.6470 C.ar      1 <0>         0.1745
     28 C20        -3.1362   -0.0974   -3.7227 C.ar      1 <0>        -0.1216
     29 C21        -3.8356    1.0197   -4.1351 C.ar      1 <0>        -0.0865
     30 C22        -4.1761    1.1719   -5.4667 C.ar      1 <0>        -0.1322
     31 C23        -3.8170    0.2060   -6.3903 C.ar      1 <0>        -0.0162
     32 C24        -3.1118   -0.9116   -5.9845 C.ar      1 <0>        -0.1199
     33 C25        -2.7153   -1.9604   -6.9914 C.3       1 <0>        -0.1164
     34 Cl1        -4.2470    0.4009   -8.0609 Cl        1 <0>        -0.0764
     35 H1          3.0879    1.3469   -1.3961 H         1 <0>         0.0663
     36 H2          1.6356    1.6741   -2.3717 H         1 <0>         0.0740
     37 H3          1.6771    2.1389   -0.6540 H         1 <0>         0.0742
     38 H4          1.2366   -0.9113   -2.9403 H         1 <0>         0.1338
     39 H5          2.9011   -0.8960    2.1963 H         1 <0>         0.1241
     40 H6          1.9507    2.5214    4.6068 H         1 <0>         0.1381
     41 H7         -0.0888    1.8627    0.8921 H         1 <0>         0.1257
     42 H8          1.1180   -2.9854    1.8441 H         1 <0>         0.0839
     43 H9         -0.0935   -1.7445    2.2449 H         1 <0>         0.0780
     44 H10        -0.5337   -3.1109    1.1926 H         1 <0>         0.0783
     45 H11         0.5112   -4.2214   -1.0433 H         1 <0>         0.1354
     46 H12        -2.0996   -3.0149   -4.7587 H         1 <0>         0.4054
     47 H13        -2.8714   -0.2156   -2.6824 H         1 <0>         0.1601
     48 H14        -4.1173    1.7752   -3.4166 H         1 <0>         0.1373
     49 H15        -4.7237    2.0461   -5.7864 H         1 <0>         0.1306
     50 H16        -3.5055   -2.7072   -7.0686 H         1 <0>         0.0716
     51 H17        -2.5624   -1.4914   -7.9634 H         1 <0>         0.0763
     52 H18        -1.7912   -2.4411   -6.6706 H         1 <0>         0.0655
@<TRIPOS>BOND
     1    1    2 1
     2    1   35 1
     3    1   36 1
     4    1   37 1
     5    2    6 1
     6    2    3 2
     7    3    4 1
     8    3   38 1
     9    4    5 2
    10    4   20 1
    11    5    6 1
    12    5   19 1
    13    6    7 1
    14    7   12 ar
    15    7    8 ar
    16    8    9 ar
    17    8   39 1
    18    9   10 ar
    19    9   16 1
    20   10   11 ar
    21   10   40 1
    22   11   12 ar
    23   11   13 1
    24   12   41 1
    25   13   14 2
    26   13   15 1
    27   16   17 2
    28   16   18 1
    29   19   42 1
    30   19   43 1
    31   19   44 1
    32   20   21 2
    33   20   45 1
    34   21   22 1
    35   21   24 1
    36   22   23 3
    37   24   25 2
    38   24   26 am
    39   26   27 1
    40   26   46 1
    41   27   32 ar
    42   27   28 ar
    43   28   29 ar
    44   28   47 1
    45   29   30 ar
    46   29   48 1
    47   30   31 ar
    48   30   49 1
    49   31   32 ar
    50   31   34 1
    51   32   33 1
    52   33   50 1
    53   33   51 1
    54   33   52 1
@<TRIPOS>MOLECULE
ZINC13066437
   51    52     0     0     0
SMALL
USER_CHARGES
2-chloro-5-[(N'E)-N'-[1-[4-[(4-hydroxy-4-oxo-butyl)-methyl-sulfamoyl]phenyl]ethylidene]hydrazino]benzoic acid
@<TRIPOS>ATOM
      1 C1          5.9807    3.4947   -0.0365 C.3       1 <0>        -0.1470
      2 C2          4.6594    4.2192   -0.0200 C.2       1 <0>         0.0773
      3 N1          3.5496    3.5454   -0.0129 N.2       1 <0>        -0.2019
      4 N2          3.5805    2.1447   -0.0208 N.pl3     1 <0>        -0.5712
      5 C3          2.3871    1.4201   -0.0132 C.ar      1 <0>         0.1847
      6 C4          1.1673    2.0893    0.0021 C.ar      1 <0>        -0.1428
      7 C5         -0.0167    1.3777    0.0096 C.ar      1 <0>        -0.0963
      8 C6          0.0021   -0.0041    0.0020 C.ar      1 <0>        -0.0399
      9 C7          1.2221   -0.6858   -0.0133 C.ar      1 <0>        -0.0747
     10 C8          2.4178    0.0340   -0.0209 C.ar      1 <0>        -0.1206
     11 C9          1.2459   -2.1622   -0.0210 C.2       1 <0>         0.4888
     12 O1          0.2039   -2.7866   -0.0140 O.co2     1 <0>        -0.6041
     13 Cl1        -1.4892   -0.8928    0.0110 Cl        1 <0>        -0.0557
     14 C10         4.6270    5.6933   -0.0117 C.ar      1 <0>         0.0325
     15 C11         5.8192    6.4216   -0.0134 C.ar      1 <0>        -0.1269
     16 C12         5.7811    7.8003   -0.0110 C.ar      1 <0>        -0.0239
     17 C13         4.5660    8.4622    0.0047 C.ar      1 <0>        -0.6748
     18 C14         3.3812    7.7474    0.0117 C.ar      1 <0>        -0.0105
     19 C15         3.4039    6.3683    0.0036 C.ar      1 <0>        -0.1028
     20 S1          4.5272   10.2237    0.0151 S.o2      1 <0>         2.6930
     21 O2          5.7581   10.6604   -0.5448 O.2       1 <0>        -0.9647
     22 O3          3.2681   10.6054   -0.5217 O.2       1 <0>        -0.9570
     23 N3          4.5313   10.7042    1.5999 N.pl3     1 <0>        -0.9973
     24 C16         5.8015   10.9447    2.2891 C.3       1 <0>         0.0948
     25 C17         3.2648   10.8887    2.3126 C.3       1 <0>         0.1103
     26 C18         2.9212    9.6111    3.0811 C.3       1 <0>        -0.1218
     27 C19         1.5984    9.8038    3.8255 C.3       1 <0>        -0.1569
     28 C20         1.2600    8.5454    4.5824 C.2       1 <0>         0.4578
     29 O4          2.0007    7.5922    4.5316 O.co2     1 <0>        -0.6365
     30 H1          6.2894    3.3255   -1.0681 H         1 <0>         0.0815
     31 H2          6.7321    4.0976    0.4734 H         1 <0>         0.0844
     32 H3          5.8763    2.5369    0.4732 H         1 <0>         0.0695
     33 H4          4.4310    1.6784   -0.0314 H         1 <0>         0.3915
     34 H5          1.1460    3.1690    0.0078 H         1 <0>         0.1355
     35 H6         -0.9602    1.9031    0.0169 H         1 <0>         0.1300
     36 H7          3.3638   -0.4869   -0.0324 H         1 <0>         0.1367
     37 H8          6.7683    5.9062   -0.0211 H         1 <0>         0.1359
     38 H9          6.7019    8.3647   -0.0168 H         1 <0>         0.1385
     39 H10         2.4365    8.2705    0.0232 H         1 <0>         0.1425
     40 H11         2.4784    5.8116    0.0088 H         1 <0>         0.1435
     41 H12         6.0920   11.9875    2.1621 H         1 <0>         0.0572
     42 H13         5.6858   10.7265    3.3508 H         1 <0>         0.0765
     43 H14         6.5717   10.2989    1.8674 H         1 <0>         0.0681
     44 H15         3.3592   11.7192    3.0122 H         1 <0>         0.0821
     45 H16         2.4728   11.1057    1.5959 H         1 <0>         0.0913
     46 H17         2.8267    8.7806    2.3815 H         1 <0>         0.0644
     47 H18         3.7132    9.3941    3.7979 H         1 <0>         0.0668
     48 H19         1.6928   10.6343    4.5251 H         1 <0>         0.0638
     49 H20         0.8064   10.0208    3.1087 H         1 <0>         0.0663
     50 O5          2.4233   -2.8169   -0.0358 O.co2     1 <0>        -0.7594
     51 O6          0.1356    8.4834    5.3129 O.co2     1 <0>        -0.7784
@<TRIPOS>BOND
     1    1    2 1
     2    1   30 1
     3    1   31 1
     4    1   32 1
     5    2    3 2
     6    2   14 1
     7    3    4 1
     8    4    5 1
     9    4   33 1
    10    5   10 ar
    11    5    6 ar
    12    6    7 ar
    13    6   34 1
    14    7    8 ar
    15    7   35 1
    16    8    9 ar
    17    8   13 1
    18    9   10 ar
    19    9   11 1
    20   10   36 1
    21   11   12 2
    22   11   50 1
    23   14   19 ar
    24   14   15 ar
    25   15   16 ar
    26   15   37 1
    27   16   17 ar
    28   16   38 1
    29   17   18 ar
    30   17   20 1
    31   18   19 ar
    32   18   39 1
    33   19   40 1
    34   20   21 2
    35   20   22 2
    36   20   23 1
    37   23   24 1
    38   23   25 1
    39   24   41 1
    40   24   42 1
    41   24   43 1
    42   25   26 1
    43   25   44 1
    44   25   45 1
    45   26   27 1
    46   26   46 1
    47   26   47 1
    48   27   28 1
    49   27   48 1
    50   27   49 1
    51   28   29 2
    52   28   51 1
@<TRIPOS>MOLECULE
ZINC19720222
   49    52     0     0     0
SMALL
USER_CHARGES
2-benzyloxy-5-[(Z)-(4,6-dioxo-1-phenyl-2-thioxo-hexahydropyrimidin-5-ylidene)methyl]benzoic acid
@<TRIPOS>ATOM
      1 C1          0.5410   -5.9983    4.7305 C.ar      1 <0>        -0.1192
      2 C2          1.2112   -4.7894    4.7463 C.ar      1 <0>        -0.1257
      3 C3          2.4568   -4.6819    4.1565 C.ar      1 <0>        -0.0919
      4 C4          3.0322   -5.7833    3.5510 C.ar      1 <0>        -0.0769
      5 C5          2.3622   -6.9924    3.5357 C.ar      1 <0>        -0.0929
      6 C6          1.1167   -7.0999    4.1254 C.ar      1 <0>        -0.1266
      7 C7          4.3901   -5.6661    2.9081 C.3       1 <0>         0.0861
      8 O1          4.2375   -5.2919    1.5374 O.3       1 <0>        -0.2593
      9 C8          5.3705   -5.1431    0.8110 C.ar      1 <0>         0.1789
     10 C9          6.6097   -5.3535    1.4062 C.ar      1 <0>        -0.2376
     11 C10         7.7575   -5.2058    0.6834 C.ar      1 <0>         0.0088
     12 C11         7.7004   -4.8395   -0.6720 C.ar      1 <0>        -0.1615
     13 C12         6.4611   -4.6249   -1.2849 C.ar      1 <0>        -0.0003
     14 C13         5.2923   -4.7818   -0.5451 C.ar      1 <0>        -0.1644
     15 C14         3.9790   -4.5642   -1.1794 C.2       1 <0>         0.4968
     16 O2          2.9610   -4.6971   -0.5296 O.co2     1 <0>        -0.6159
     17 O3          3.9079   -4.2179   -2.4797 O.co2     1 <0>        -0.7665
     18 C15         8.9354   -4.6833   -1.4416 C.2       1 <0>         0.0999
     19 C16         9.9864   -3.9548   -0.9203 C.2       1 <0>        -0.3067
     20 C17        11.3231   -3.9719   -1.5478 C.2       1 <0>         0.5368
     21 O4         11.5362   -4.6324   -2.5468 O.3       1 <0>        -0.5244
     22 N1         12.2999   -3.2305   -0.9856 N.2       1 <0>        -0.6295
     23 C18        12.0806   -2.5034    0.1187 C.2       1 <0>         0.5522
     24 S1         13.3835   -1.6005    0.7654 S.2       1 <0>        -0.7088
     25 N2         10.8967   -2.4444    0.7440 N.am      1 <0>        -0.5145
     26 C19         9.8253   -3.1288    0.2929 C.2       1 <0>         0.5539
     27 O5          8.7562   -3.0676    0.8699 O.2       1 <0>        -0.4828
     28 C20        10.7688   -1.6536    1.8934 C.ar      1 <0>         0.1705
     29 C21        11.0773   -2.1826    3.1396 C.ar      1 <0>        -0.0887
     30 C22        10.9561   -1.3986    4.2702 C.ar      1 <0>        -0.1146
     31 C23        10.5164   -0.0919    4.1633 C.ar      1 <0>        -0.1232
     32 C24        10.2030    0.4360    2.9242 C.ar      1 <0>        -0.1131
     33 C25        10.3279   -0.3411    1.7893 C.ar      1 <0>        -0.0916
     34 H1         -0.4342   -6.0811    5.1870 H         1 <0>         0.1182
     35 H2          0.7615   -3.9288    5.2190 H         1 <0>         0.1208
     36 H3          2.9803   -3.7374    4.1687 H         1 <0>         0.1238
     37 H4          2.8118   -7.8529    3.0626 H         1 <0>         0.1228
     38 H5          0.5931   -8.0444    4.1132 H         1 <0>         0.1203
     39 H6          4.9798   -4.9006    3.4337 H         1 <0>         0.0675
     40 H7          4.9091   -6.6341    2.9683 H         1 <0>         0.0658
     41 H8          6.6639   -5.6352    2.4473 H         1 <0>         0.1209
     42 H9          8.7147   -5.3716    1.1553 H         1 <0>         0.1100
     43 H10         6.4114   -4.3432   -2.3263 H         1 <0>         0.1393
     44 H11         9.0265   -5.1462   -2.4353 H         1 <0>         0.1521
     45 H12        11.4162   -3.2046    3.2242 H         1 <0>         0.1163
     46 H13        11.2008   -1.8079    5.2392 H         1 <0>         0.1199
     47 H14        10.4178    0.5177    5.0493 H         1 <0>         0.1172
     48 H15         9.8604    1.4571    2.8439 H         1 <0>         0.1205
     49 H16        10.0833    0.0719    0.8218 H         1 <0>         0.1171
@<TRIPOS>BOND
     1    1    6 ar
     2    1    2 ar
     3    1   34 1
     4    2    3 ar
     5    2   35 1
     6    3    4 ar
     7    3   36 1
     8    4    5 ar
     9    4    7 1
    10    5    6 ar
    11    5   37 1
    12    6   38 1
    13    7    8 1
    14    7   39 1
    15    7   40 1
    16    8    9 1
    17    9   14 ar
    18    9   10 ar
    19   10   11 ar
    20   10   41 1
    21   11   12 ar
    22   11   42 1
    23   12   13 ar
    24   12   18 1
    25   13   14 ar
    26   13   43 1
    27   14   15 1
    28   15   16 2
    29   15   17 1
    30   18   19 2
    31   18   44 1
    32   19   26 1
    33   19   20 1
    34   20   21 1
    35   20   22 2
    36   22   23 1
    37   23   24 2
    38   23   25 1
    39   25   26 am
    40   25   28 1
    41   26   27 2
    42   28   33 ar
    43   28   29 ar
    44   29   30 ar
    45   29   45 1
    46   30   31 ar
    47   30   46 1
    48   31   32 ar
    49   31   47 1
    50   32   33 ar
    51   32   48 1
    52   33   49 1
@<TRIPOS>MOLECULE
ZINC16919318
   50    52     0     0     0
SMALL
USER_CHARGES
(2S)-2-[4-[(E)-[2-[(3-chlorophenyl)amino]-4-oxo-thiazol-5-ylidene]methyl]-2-ethoxy-phenoxy]butanoic acid
@<TRIPOS>ATOM
      1 C1          1.7607   -3.6271    1.2155 C.3       1 <0>        -0.1534
      2 C2          0.5224   -4.1271    0.4689 C.3       1 <0>        -0.1218
      3 C3          0.3150   -3.2884   -0.7939 C.3       1 <0>         0.0369
      4 H1          1.2269   -3.2448   -1.4076 H         1 <0>         0.0784
      5 C4         -0.8298   -3.8570   -1.5922 C.2       1 <0>         0.4715
      6 O1         -1.8018   -3.1774   -1.8228 O.co2     1 <0>        -0.6167
      7 O2         -0.7696   -5.1185   -2.0469 O.co2     1 <0>        -0.7609
      8 O3          0.0162   -1.9402   -0.4265 O.3       1 <0>        -0.2779
      9 C5          1.0419   -1.0503   -0.4596 C.ar      1 <0>         0.1374
     10 C6          2.3315   -1.4901   -0.7279 C.ar      1 <0>        -0.1968
     11 C7          3.3759   -0.5929   -0.7634 C.ar      1 <0>        -0.0232
     12 C8          3.1380    0.7671   -0.5284 C.ar      1 <0>        -0.0895
     13 C9          1.8370    1.2093   -0.2580 C.ar      1 <0>        -0.1477
     14 C10         0.7965    0.3022   -0.2246 C.ar      1 <0>         0.0698
     15 O4         -0.4690    0.7287    0.0322 O.3       1 <0>        -0.3004
     16 C11        -0.6477    2.1275    0.2638 C.3       1 <0>         0.0526
     17 C12        -2.1262    2.4150    0.5330 C.3       1 <0>        -0.1507
     18 C13         4.2491    1.7261   -0.5650 C.2       1 <0>         0.0067
     19 C14         5.4693    1.3694   -0.0895 C.2       1 <0>        -0.2038
     20 C15         5.8833    0.1496    0.6425 C.2       1 <0>         0.5262
     21 O5          5.0907   -0.7378    0.9153 O.2       1 <0>        -0.5102
     22 N1          7.1521    0.0736    0.9783 N.2       1 <0>        -0.7122
     23 C16         8.0202    1.0319    0.6953 C.2       1 <0>         0.4571
     24 S1          7.0279    2.2434   -0.1635 S.3       1 <0>        -0.1461
     25 N2          9.3581    1.0825    0.9904 N.2       1 <0>        -0.5855
     26 C17         9.9862   -0.0192    1.5788 C.ar      1 <0>         0.1818
     27 C18        11.0655    0.1692    2.4332 C.ar      1 <0>        -0.1451
     28 C19        11.6805   -0.9204    3.0176 C.ar      1 <0>        -0.0986
     29 C20        11.2308   -2.1993    2.7445 C.ar      1 <0>        -0.1694
     30 C21        10.1597   -2.3914    1.8896 C.ar      1 <0>        -0.0123
     31 C22         9.5363   -1.3043    1.3060 C.ar      1 <0>        -0.1435
     32 Cl1         9.5990   -3.9987    1.5492 Cl        1 <0>        -0.0943
     33 H2          1.9098   -4.2301    2.1234 H         1 <0>         0.0487
     34 H3          1.6195   -2.5726    1.4948 H         1 <0>         0.0564
     35 H4          2.6430   -3.7192    0.5651 H         1 <0>         0.0565
     36 H5          0.6636   -5.1816    0.1896 H         1 <0>         0.0832
     37 H6         -0.3600   -4.0350    1.1193 H         1 <0>         0.0639
     38 H7          2.5161   -2.5387   -0.9089 H         1 <0>         0.1395
     39 H8          4.3778   -0.9379   -0.9720 H         1 <0>         0.1287
     40 H9          1.6480    2.2570   -0.0764 H         1 <0>         0.1275
     41 H10        -0.0500    2.4342    1.1348 H         1 <0>         0.0548
     42 H11        -0.3200    2.6907   -0.6224 H         1 <0>         0.0554
     43 H12        -2.2638    3.4917    0.7113 H         1 <0>         0.0702
     44 H13        -2.4538    1.8518    1.4193 H         1 <0>         0.0647
     45 H14        -2.7239    2.1082   -0.3380 H         1 <0>         0.0668
     46 H15         4.0927    2.7337   -0.9778 H         1 <0>         0.1291
     47 H16        11.4203    1.1673    2.6436 H         1 <0>         0.1189
     48 H17        12.5168   -0.7738    3.6850 H         1 <0>         0.1186
     49 H18        11.7167   -3.0499    3.1992 H         1 <0>         0.1163
     50 H19         8.7006   -1.4543    0.6385 H         1 <0>         0.1424
@<TRIPOS>BOND
     1    1    2 1
     2    1   33 1
     3    1   34 1
     4    1   35 1
     5    2    3 1
     6    2   36 1
     7    2   37 1
     8    3    4 1
     9    3    5 1
    10    3    8 1
    11    5    6 2
    12    5    7 1
    13    8    9 1
    14    9   14 ar
    15    9   10 ar
    16   10   11 ar
    17   10   38 1
    18   11   12 ar
    19   11   39 1
    20   12   13 ar
    21   12   18 1
    22   13   14 ar
    23   13   40 1
    24   14   15 1
    25   15   16 1
    26   16   17 1
    27   16   41 1
    28   16   42 1
    29   17   43 1
    30   17   44 1
    31   17   45 1
    32   18   19 2
    33   18   46 1
    34   19   24 1
    35   19   20 1
    36   20   21 2
    37   20   22 1
    38   22   23 2
    39   23   24 1
    40   23   25 1
    41   25   26 1
    42   26   31 ar
    43   26   27 ar
    44   27   28 ar
    45   27   47 1
    46   28   29 ar
    47   28   48 1
    48   29   30 ar
    49   29   49 1
    50   30   31 ar
    51   30   32 1
    52   31   50 1
@<TRIPOS>MOLECULE
ZINC39668024
   56    58     0     0     0
SMALL
USER_CHARGES

@<TRIPOS>ATOM
      1 C1         -0.0344    1.3076    0.5287 C.3       1 <0>        -0.1032
      2 C2         -0.0347   -0.1955    0.4201 C.ar      1 <0>        -0.1852
      3 C3         -0.2041   -0.7983   -0.8127 C.ar      1 <0>        -0.0458
      4 C4         -0.2045   -2.1753   -0.9161 C.ar      1 <0>        -0.2082
      5 C5         -0.0342   -2.9568    0.2201 C.ar      1 <0>         0.2766
      6 C6          0.1359   -2.3505    1.4575 C.ar      1 <0>        -0.2298
      7 C7          0.1406   -0.9704    1.5545 C.ar      1 <0>         0.1495
      8 F1          0.3111   -0.3785    2.7569 F         1 <0>        -0.1347
      9 N1         -0.0347   -4.3498    0.1177 N.pl3     1 <0>        -0.6219
     10 C8         -0.1948   -5.1466   -1.1059 C.3       1 <0>         0.1600
     11 H1          0.6078   -4.9156   -1.8062 H         1 <0>         0.0885
     12 C9         -0.1255   -6.5974   -0.7081 C.2       1 <0>        -0.0769
     13 C10         0.0560   -6.6941    0.6056 C.2       1 <0>        -0.1893
     14 C11         0.1312   -5.3170    1.2106 C.3       1 <0>         0.1748
     15 H2          1.0998   -5.1728    1.6893 H         1 <0>         0.0916
     16 C12        -0.9903   -5.1405    2.2362 C.3       1 <0>        -0.1769
     17 C13         0.1701   -7.9480    1.3497 C.2       1 <0>         0.4306
     18 O1          0.0023   -9.0074    0.7826 O.2       1 <0>        -0.4331
     19 C14         0.4963   -7.9242    2.8208 C.3       1 <0>        -0.1606
     20 S1          0.7405   -9.6212    3.4136 S.3       1 <0>        -0.0165
     21 C15         1.1090   -9.4258    5.1255 C.ar      1 <0>         0.3071
     22 N2          1.1387   -8.2069    5.6455 N.ar      1 <0>        -0.6233
     23 C16         1.4131   -8.0266    6.9313 C.ar      1 <0>         0.4455
     24 O2          1.4420   -6.7789    7.4593 O.3       1 <0>        -0.6906
     25 C17         1.6707   -9.1392    7.7317 C.ar      1 <0>        -0.2689
     26 C18         1.6300  -10.3931    7.1516 C.ar      1 <0>         0.1565
     27 N3          1.3444  -10.5015    5.8629 N.ar      1 <0>        -0.5843
     28 C19         1.9023  -11.6237    7.9777 C.3       1 <0>        -0.0908
     29 C20         1.9868   -8.9779    9.1963 C.3       1 <0>        -0.0172
     30 C21         0.6894   -9.0225   10.0061 C.3       1 <0>        -0.1642
     31 C22         1.0056   -8.8612   11.4707 C.2       1 <0>         0.4945
     32 O3          2.1615   -8.7233   11.8332 O.co2     1 <0>        -0.7032
     33 O4          0.1055   -8.8686   12.2930 O.co2     1 <0>        -0.7218
     34 C23        -1.5495   -4.8446   -1.7497 C.3       1 <0>        -0.1660
     35 H3          0.9822    1.6807    0.4051 H         1 <0>         0.0651
     36 H4         -0.6728    1.7281   -0.2484 H         1 <0>         0.0646
     37 H5         -0.4127    1.6012    1.5079 H         1 <0>         0.0644
     38 H6         -0.3368   -0.1912   -1.6960 H         1 <0>         0.1286
     39 H7         -0.3373   -2.6447   -1.8797 H         1 <0>         0.1292
     40 H8          0.2684   -2.9552    2.3425 H         1 <0>         0.1427
     41 H9         -0.2110   -7.4330   -1.3871 H         1 <0>         0.1603
     42 H10        -1.9425   -5.4195    1.7850 H         1 <0>         0.0607
     43 H11        -0.7969   -5.7773    3.0994 H         1 <0>         0.0837
     44 H12        -1.0307   -4.0989    2.5549 H         1 <0>         0.0719
     45 H13         1.4077   -7.3485    2.9816 H         1 <0>         0.1228
     46 H14        -0.3260   -7.4631    3.3679 H         1 <0>         0.1286
     47 H15         0.9675  -11.9915    8.4007 H         1 <0>         0.0656
     48 H16         2.3437  -12.3948    7.3463 H         1 <0>         0.0595
     49 H17         2.5927  -11.3749    8.7836 H         1 <0>         0.0742
     50 H18         2.6436   -9.7864    9.5175 H         1 <0>         0.0497
     51 H19         2.4831   -8.0209    9.3577 H         1 <0>         0.0637
     52 H20         0.0327   -8.2140    9.6849 H         1 <0>         0.0540
     53 H21         0.1932   -9.9795    9.8447 H         1 <0>         0.0439
     54 H22        -1.6046   -3.7853   -2.0005 H         1 <0>         0.0710
     55 H23        -1.6614   -5.4390   -2.6565 H         1 <0>         0.0690
     56 H24        -2.3477   -5.0945   -1.0507 H         1 <0>         0.0641
@<TRIPOS>BOND
     1    1    2 1
     2    1   35 1
     3    1   36 1
     4    1   37 1
     5    2    7 ar
     6    2    3 ar
     7    3    4 ar
     8    3   38 1
     9    4    5 ar
    10    4   39 1
    11    5    6 ar
    12    5    9 1
    13    6    7 ar
    14    6   40 1
    15    7    8 1
    16    9   14 1
    17    9   10 1
    18   10   11 1
    19   10   12 1
    20   10   34 1
    21   12   13 2
    22   12   41 1
    23   13   14 1
    24   13   17 1
    25   14   15 1
    26   14   16 1
    27   16   42 1
    28   16   43 1
    29   16   44 1
    30   17   18 2
    31   17   19 1
    32   19   20 1
    33   19   45 1
    34   19   46 1
    35   20   21 1
    36   21   27 ar
    37   21   22 ar
    38   22   23 ar
    39   23   24 1
    40   23   25 ar
    41   25   26 ar
    42   25   29 1
    43   26   27 ar
    44   26   28 1
    45   28   47 1
    46   28   48 1
    47   28   49 1
    48   29   30 1
    49   29   50 1
    50   29   51 1
    51   30   31 1
    52   30   52 1
    53   30   53 1
    54   31   32 2
    55   31   33 1
    56   34   54 1
    57   34   55 1
    58   34   56 1
@<TRIPOS>MOLECULE
ZINC59249692
   49    51     0     0     0
SMALL
USER_CHARGES

@<TRIPOS>ATOM
      1 C1          2.4428    1.3929   -2.1607 C.3       1 <0>        -0.0890
      2 C2          1.8849    0.1024   -1.6180 C.2       1 <0>         0.0240
      3 C3          1.4372   -0.9242   -2.3594 C.2       1 <0>        -0.1173
      4 C4          0.9921   -1.9575   -1.4132 C.2       1 <0>        -0.2283
      5 C5          1.2213   -1.4383   -0.1494 C.2       1 <0>         0.1213
      6 N1          1.7596   -0.2110   -0.2928 N.pl3     1 <0>        -0.3590
      7 C6          2.1348    0.6270    0.7666 C.ar      1 <0>         0.0413
      8 C7          3.1711    0.2543    1.6093 C.ar      1 <0>        -0.0709
      9 C8          3.5480    1.0865    2.6669 C.ar      1 <0>        -0.1477
     10 C9          2.8807    2.2932    2.8738 C.ar      1 <0>        -0.0290
     11 C10         1.8395    2.6644    2.0239 C.ar      1 <0>        -0.1475
     12 C11         1.4724    1.8289    0.9655 C.ar      1 <0>        -0.0687
     13 C12         1.1296    3.9402    2.2386 C.2       1 <0>         0.5270
     14 O1          1.4544    4.6727    3.1624 O.co2     1 <0>        -0.6841
     15 O2          0.2166    4.2650    1.4926 O.co2     1 <0>        -0.6954
     16 C13         4.6504    0.6885    3.5636 C.2       1 <0>         0.5277
     17 O3          5.2347   -0.3702    3.3816 O.co2     1 <0>        -0.6975
     18 O4          4.9794    1.4174    4.4888 O.co2     1 <0>        -0.6835
     19 C14         0.9256   -2.1278    1.1576 C.3       1 <0>        -0.0997
     20 C15         0.4406   -3.2250   -1.7292 C.2       1 <0>         0.1692
     21 C16        -0.5518   -3.3276   -2.6843 C.2       1 <0>        -0.2058
     22 C17        -0.9436   -4.6149   -3.1743 C.1       1 <0>         0.2662
     23 N2         -1.2544   -5.6361   -3.5630 N.1       1 <0>        -0.4448
     24 C18        -1.2055   -2.1162   -3.1976 C.2       1 <0>         0.5687
     25 O5         -0.9706   -1.0361   -2.6887 O.2       1 <0>        -0.4699
     26 N3         -2.0652   -2.2011   -4.2320 N.am      1 <0>        -0.6799
     27 C19        -2.7742   -1.0688   -4.6471 C.ar      1 <0>         0.1674
     28 C20        -3.1221   -0.9169   -5.9831 C.ar      1 <0>        -0.1443
     29 C21        -3.8224    0.2017   -6.3901 C.ar      1 <0>        -0.0913
     30 C22        -4.1770    1.1710   -5.4682 C.ar      1 <0>        -0.0566
     31 C23        -3.8316    1.0221   -4.1364 C.ar      1 <0>        -0.0841
     32 C24        -3.1363   -0.0973   -3.7230 C.ar      1 <0>        -0.1082
     33 Cl1        -5.0563    2.5764   -5.9834 Cl        1 <0>        -0.0790
     34 H1          3.5193    1.2933   -2.2997 H         1 <0>         0.0664
     35 H2          1.9722    1.6182   -3.1177 H         1 <0>         0.0739
     36 H3          2.2404    2.2005   -1.4572 H         1 <0>         0.0742
     37 H4          1.4098   -0.9796   -3.4376 H         1 <0>         0.1336
     38 H5          3.6875   -0.6805    1.4484 H         1 <0>         0.1241
     39 H6          3.1693    2.9385    3.6904 H         1 <0>         0.1382
     40 H7          0.6687    2.1175    0.3043 H         1 <0>         0.1257
     41 H8          1.7971   -2.7032    1.4701 H         1 <0>         0.0839
     42 H9          0.6912   -1.3819    1.9170 H         1 <0>         0.0780
     43 H10         0.0747   -2.7972    1.0309 H         1 <0>         0.0782
     44 H11         0.7966   -4.1102   -1.2231 H         1 <0>         0.1352
     45 H12        -2.1924   -3.0474   -4.6887 H         1 <0>         0.4054
     46 H13        -2.8449   -1.6726   -6.7031 H         1 <0>         0.1310
     47 H14        -4.0932    0.3203   -7.4288 H         1 <0>         0.1325
     48 H15        -4.1093    1.7802   -3.4190 H         1 <0>         0.1379
     49 H16        -2.8705   -0.2149   -2.6829 H         1 <0>         0.1505
@<TRIPOS>BOND
     1    1    2 1
     2    1   34 1
     3    1   35 1
     4    1   36 1
     5    2    6 1
     6    2    3 2
     7    3    4 1
     8    3   37 1
     9    4    5 2
    10    4   20 1
    11    5    6 1
    12    5   19 1
    13    6    7 1
    14    7   12 ar
    15    7    8 ar
    16    8    9 ar
    17    8   38 1
    18    9   10 ar
    19    9   16 1
    20   10   11 ar
    21   10   39 1
    22   11   12 ar
    23   11   13 1
    24   12   40 1
    25   13   14 2
    26   13   15 1
    27   16   17 2
    28   16   18 1
    29   19   41 1
    30   19   42 1
    31   19   43 1
    32   20   21 2
    33   20   44 1
    34   21   22 1
    35   21   24 1
    36   22   23 3
    37   24   25 2
    38   24   26 am
    39   26   27 1
    40   26   45 1
    41   27   32 ar
    42   27   28 ar
    43   28   29 ar
    44   28   46 1
    45   29   30 ar
    46   29   47 1
    47   30   31 ar
    48   30   33 1
    49   31   32 ar
    50   31   48 1
    51   32   49 1
@<TRIPOS>MOLECULE
ZINC13402340
   44    47     0     0     0
SMALL
USER_CHARGES
2-[[2-[[4-cyclopropyl-5-(2-thienyl)-1,2,4-triazol-3-yl]sulfanyl]acetyl]amino]terephthalic acid
@<TRIPOS>ATOM
      1 C1         -1.2260    1.4109   -0.0032 C.2       1 <0>        -0.1524
      2 C2         -1.0531    2.7765   -0.0317 C.2       1 <0>        -0.1120
      3 C3          0.2238    3.2781   -0.0497 C.2       1 <0>        -0.0784
      4 S1          1.2048    1.7867   -0.0170 S.3       1 <0>         0.0703
      5 C4         -0.1329    0.6051    0.0180 C.2       1 <0>        -0.1716
      6 C5          0.6690    4.6805   -0.0862 C.2       1 <0>         0.2488
      7 N1         -0.0675    5.7272   -0.3877 N.2       1 <0>        -0.2510
      8 N2          0.6413    6.7969   -0.3183 N.2       1 <0>        -0.2825
      9 C6          1.8748    6.5011    0.0229 C.2       1 <0>         0.1600
     10 N3          1.9375    5.1446    0.1830 N.pl3     1 <0>        -0.4313
     11 C7          3.1093    4.3507    0.5610 C.3       1 <0>         0.0377
     12 C8          4.3862    5.1080    0.9311 C.3       1 <0>        -0.1624
     13 C9          4.3022    4.3516   -0.3971 C.3       1 <0>        -0.1658
     14 S2          3.2020    7.6405    0.2345 S.3       1 <0>         0.1078
     15 C10         2.3486    9.1911   -0.1445 C.3       1 <0>        -0.1633
     16 C11         3.3166   10.3397   -0.0239 C.2       1 <0>         0.5202
     17 O1          4.4699   10.1307    0.2875 O.2       1 <0>        -0.5219
     18 N4          2.9006   11.5994   -0.2623 N.am      1 <0>        -0.6312
     19 C12         3.8196   12.6462   -0.2720 C.ar      1 <0>         0.1476
     20 C13         5.1049   12.4392   -0.7518 C.ar      1 <0>        -0.0985
     21 C14         6.0193   13.4899   -0.7643 C.ar      1 <0>        -0.1044
     22 C15         5.6472   14.7490   -0.2850 C.ar      1 <0>        -0.1069
     23 C16         4.3750   14.9579    0.1968 C.ar      1 <0>        -0.0811
     24 C17         3.4499   13.9109    0.2086 C.ar      1 <0>        -0.1465
     25 C18         2.0858   14.1357    0.7255 C.2       1 <0>         0.5036
     26 O2          1.2558   13.2514    0.6540 O.co2     1 <0>        -0.6428
     27 C19         7.3885   13.2714   -1.2810 C.2       1 <0>         0.4974
     28 O3          7.7128   12.1778   -1.6977 O.co2     1 <0>        -0.6353
     29 H1         -2.2188    0.9857    0.0055 H         1 <0>         0.1408
     30 H2         -1.9056    3.4395   -0.0441 H         1 <0>         0.1467
     31 H3         -0.0852   -0.4735    0.0444 H         1 <0>         0.1899
     32 H4          2.8975    3.4274    1.1002 H         1 <0>         0.1478
     33 H5          4.3544    6.1969    0.8933 H         1 <0>         0.1220
     34 H6          5.0147    4.6827    1.7135 H         1 <0>         0.1253
     35 H7          4.8754    3.4290   -0.4878 H         1 <0>         0.1181
     36 H8          4.2150    4.9425   -1.3088 H         1 <0>         0.1107
     37 H9          1.9568    9.1511   -1.1609 H         1 <0>         0.1250
     38 H10         1.5262    9.3339    0.5565 H         1 <0>         0.1281
     39 H11         1.9614   11.7770   -0.4270 H         1 <0>         0.4239
     40 H12         5.3949   11.4657   -1.1186 H         1 <0>         0.1334
     41 H13         6.3601   15.5602   -0.2924 H         1 <0>         0.1261
     42 H14         4.0916   15.9322    0.5666 H         1 <0>         0.1282
     43 O4          1.7610   15.3214    1.2766 O.co2     1 <0>        -0.7554
     44 O5          8.2750   14.2853   -1.2893 O.co2     1 <0>        -0.7645
@<TRIPOS>BOND
     1    1    5 2
     2    1    2 1
     3    1   29 1
     4    2    3 2
     5    2   30 1
     6    3    4 1
     7    3    6 1
     8    4    5 1
     9    5   31 1
    10    6   10 1
    11    6    7 2
    12    7    8 1
    13    8    9 2
    14    9   10 1
    15    9   14 1
    16   10   11 1
    17   11   13 1
    18   11   12 1
    19   11   32 1
    20   12   13 1
    21   12   33 1
    22   12   34 1
    23   13   35 1
    24   13   36 1
    25   14   15 1
    26   15   16 1
    27   15   37 1
    28   15   38 1
    29   16   17 2
    30   16   18 am
    31   18   19 1
    32   18   39 1
    33   19   24 ar
    34   19   20 ar
    35   20   21 ar
    36   20   40 1
    37   21   22 ar
    38   21   27 1
    39   22   23 ar
    40   22   41 1
    41   23   24 ar
    42   23   42 1
    43   24   25 1
    44   25   26 2
    45   25   43 1
    46   27   28 2
    47   27   44 1
@<TRIPOS>MOLECULE
ZINC16907144
   49    51     0     0     0
SMALL
USER_CHARGES
(2S)-2-[4-[(E)-[2-[(4-ethoxycarbonylphenyl)amino]-4-oxo-thiazol-5-ylidene]methyl]phenoxy]propanoic acid
@<TRIPOS>ATOM
      1 C1         10.9018    2.8305    3.5333 C.3       1 <0>        -0.1522
      2 C2          9.6438    2.0941    3.9980 C.3       1 <0>         0.0597
      3 O1          8.4918    2.5982    3.2720 O.3       1 <0>        -0.3586
      4 C3          7.2962    2.0502    3.5652 C.2       1 <0>         0.5170
      5 O2          7.2184    1.1750    4.4046 O.2       1 <0>        -0.5271
      6 C4          6.0824    2.5125    2.8676 C.ar      1 <0>        -0.2008
      7 C5          4.8409    1.9449    3.1706 C.ar      1 <0>        -0.0310
      8 C6          3.7099    2.3791    2.5178 C.ar      1 <0>        -0.1789
      9 C7          3.8007    3.3824    1.5572 C.ar      1 <0>         0.2150
     10 C8          5.0358    3.9456    1.2490 C.ar      1 <0>        -0.1667
     11 C9          6.1700    3.5198    1.9017 C.ar      1 <0>        -0.0443
     12 N1          2.6542    3.8197    0.8989 N.2       1 <0>        -0.5875
     13 C10         1.5717    2.9856    0.7793 C.2       1 <0>         0.4613
     14 N2          1.4712    1.7144    1.1332 N.2       1 <0>        -0.7096
     15 C11         0.3676    1.0199    0.9636 C.2       1 <0>         0.5273
     16 O3          0.2874   -0.1525    1.2938 O.2       1 <0>        -0.5076
     17 C12        -0.7711    1.7371    0.3440 C.2       1 <0>        -0.2117
     18 C13        -2.0177    1.2930    0.0419 C.2       1 <0>         0.0152
     19 C14        -2.3398   -0.1336    0.1698 C.ar      1 <0>        -0.1251
     20 C15        -1.4113   -1.1025   -0.2313 C.ar      1 <0>         0.0042
     21 C16        -1.7163   -2.4387   -0.1037 C.ar      1 <0>        -0.2258
     22 C17        -2.9479   -2.8272    0.4114 C.ar      1 <0>         0.1579
     23 C18        -3.8756   -1.8696    0.8058 C.ar      1 <0>        -0.1771
     24 C19        -3.5789   -0.5307    0.6881 C.ar      1 <0>        -0.0568
     25 O4         -3.2458   -4.1463    0.5293 O.3       1 <0>        -0.2918
     26 C20        -2.3074   -5.0748   -0.0177 C.3       1 <0>         0.0351
     27 H1         -1.7888   -4.5450   -0.8303 H         1 <0>         0.0779
     28 C21        -1.3359   -5.5223    1.0763 C.3       1 <0>        -0.1511
     29 C22        -3.0435   -6.2740   -0.5572 C.2       1 <0>         0.4734
     30 O5         -4.2481   -6.3280   -0.4810 O.co2     1 <0>        -0.6189
     31 O6         -2.3608   -7.2822   -1.1223 O.co2     1 <0>        -0.7583
     32 S1         -0.0422    3.3532    0.1085 S.3       1 <0>        -0.1399
     33 H2         11.7745    2.4486    4.0833 H         1 <0>         0.0754
     34 H3         10.7889    3.9074    3.7270 H         1 <0>         0.0655
     35 H4         11.0465    2.6650    2.4555 H         1 <0>         0.0663
     36 H5          9.7567    1.0172    3.8043 H         1 <0>         0.0671
     37 H6          9.4991    2.2596    5.0758 H         1 <0>         0.0663
     38 H7          4.7697    1.1670    3.9163 H         1 <0>         0.1216
     39 H8          2.7507    1.9412    2.7513 H         1 <0>         0.1485
     40 H9          5.1034    4.7205    0.4998 H         1 <0>         0.1223
     41 H10         7.1273    3.9605    1.6656 H         1 <0>         0.1242
     42 H11        -2.7866    2.0020   -0.2988 H         1 <0>         0.1308
     43 H12        -0.4563   -0.8018   -0.6361 H         1 <0>         0.1208
     44 H13        -0.9995   -3.1867   -0.4089 H         1 <0>         0.1291
     45 H14        -4.8309   -2.1770    1.2050 H         1 <0>         0.1264
     46 H15        -4.3004    0.2123    0.9944 H         1 <0>         0.1233
     47 H16        -0.6135   -6.2371    0.6552 H         1 <0>         0.0772
     48 H17        -1.8971   -6.0047    1.8902 H         1 <0>         0.0585
     49 H18        -0.7986   -4.6469    1.4700 H         1 <0>         0.0536
@<TRIPOS>BOND
     1    1    2 1
     2    1   33 1
     3    1   34 1
     4    1   35 1
     5    2    3 1
     6    2   36 1
     7    2   37 1
     8    3    4 1
     9    4    5 2
    10    4    6 1
    11    6   11 ar
    12    6    7 ar
    13    7    8 ar
    14    7   38 1
    15    8    9 ar
    16    8   39 1
    17    9   10 ar
    18    9   12 1
    19   10   11 ar
    20   10   40 1
    21   11   41 1
    22   12   13 1
    23   13   32 1
    24   13   14 2
    25   14   15 1
    26   15   16 2
    27   15   17 1
    28   17   18 2
    29   17   32 1
    30   18   19 1
    31   18   42 1
    32   19   24 ar
    33   19   20 ar
    34   20   21 ar
    35   20   43 1
    36   21   22 ar
    37   21   44 1
    38   22   23 ar
    39   22   25 1
    40   23   24 ar
    41   23   45 1
    42   24   46 1
    43   25   26 1
    44   26   27 1
    45   26   28 1
    46   26   29 1
    47   28   47 1
    48   28   48 1
    49   28   49 1
    50   29   30 2
    51   29   31 1
@<TRIPOS>MOLECULE
ZINC13344379
   40    41     0     0     0
SMALL
USER_CHARGES

@<TRIPOS>ATOM
      1 C1         -0.0173    1.4248    0.0099 C.3       1 <0>         0.0233
      2 O1          0.0021   -0.0041    0.0020 O.3       1 <0>        -0.3077
      3 C2          0.6062   -0.6075   -1.0564 C.ar      1 <0>         0.0842
      4 C3          1.1701    0.1578   -2.0575 C.ar      1 <0>        -0.1564
      5 C4          1.7914   -0.4672   -3.1458 C.ar      1 <0>        -0.0327
      6 C5          1.8369   -1.8652   -3.2124 C.ar      1 <0>        -0.0448
      7 C6          1.2717   -2.6205   -2.2093 C.ar      1 <0>        -0.6073
      8 C7          0.6608   -1.9994   -1.1274 C.ar      1 <0>         0.1618
      9 O2          0.1106   -2.7497   -0.1383 O.3       1 <0>        -0.3162
     10 C8         -1.2612   -3.1198   -0.2915 C.3       1 <0>         0.0249
     11 S1          1.3300   -4.3794   -2.2947 S.o2      1 <0>         2.6180
     12 O3          0.0103   -4.8422   -2.0427 O.2       1 <0>        -1.0190
     13 O4          2.0375   -4.7051   -3.4832 O.2       1 <0>        -1.0230
     14 N1          2.2638   -4.9004   -1.0302 N.2       1 <0>        -1.0636
     15 C9          2.4883   -6.2663   -0.8441 C.ar      1 <0>         0.3068
     16 C10         1.9338   -7.1885   -1.7224 C.ar      1 <0>        -0.2563
     17 C11         2.1580   -8.5397   -1.5362 C.ar      1 <0>         0.0416
     18 C12         2.9342   -8.9739   -0.4760 C.ar      1 <0>        -0.2199
     19 C13         3.4876   -8.0574    0.4008 C.ar      1 <0>         0.0256
     20 C14         3.2713   -6.7047    0.2161 C.ar      1 <0>        -0.1688
     21 Cl1         4.4597   -8.6066    1.7301 Cl        1 <0>        -0.0972
     22 Cl2         1.4648   -9.6930   -2.6330 Cl        1 <0>        -0.0978
     23 C15         2.3928    0.3410   -4.2143 C.2       1 <0>        -0.1031
     24 C16         2.3472    1.6920   -4.1481 C.2       1 <0>        -0.1735
     25 C17         2.9261    2.4700   -5.1766 C.2       1 <0>         0.5037
     26 O5          3.4691    1.9212   -6.1280 O.co2     1 <0>        -0.6935
     27 O6          2.8848    3.6931   -5.1166 O.co2     1 <0>        -0.7050
     28 H1          1.0053    1.8021    0.0021 H         1 <0>         0.0557
     29 H2         -0.5445    1.7859   -0.8732 H         1 <0>         0.0537
     30 H3         -0.5275    1.7763    0.9067 H         1 <0>         0.0966
     31 H4          1.1320    1.2357   -2.0015 H         1 <0>         0.1398
     32 H5          2.3148   -2.3508   -4.0504 H         1 <0>         0.1478
     33 H6         -1.8751   -2.2213   -0.3536 H         1 <0>         0.0317
     34 H7         -1.3800   -3.7048   -1.2035 H         1 <0>         0.0865
     35 H8         -1.5747   -3.7155    0.5657 H         1 <0>         0.0871
     36 H9          1.3276   -6.8502   -2.5497 H         1 <0>         0.1141
     37 H10         3.1081  -10.0301   -0.3324 H         1 <0>         0.1219
     38 H11         3.7073   -5.9895    0.8978 H         1 <0>         0.1301
     39 H12         2.8715   -0.1427   -5.0529 H         1 <0>         0.1345
     40 H13         1.8685    2.1757   -3.3095 H         1 <0>         0.0965
@<TRIPOS>BOND
     1    1    2 1
     2    1   28 1
     3    1   29 1
     4    1   30 1
     5    2    3 1
     6    3    8 ar
     7    3    4 ar
     8    4    5 ar
     9    4   31 1
    10    5    6 ar
    11    5   23 1
    12    6    7 ar
    13    6   32 1
    14    7    8 ar
    15    7   11 1
    16    8    9 1
    17    9   10 1
    18   10   33 1
    19   10   34 1
    20   10   35 1
    21   11   12 2
    22   11   13 2
    23   11   14 1
    24   14   15 1
    25   15   20 ar
    26   15   16 ar
    27   16   17 ar
    28   16   36 1
    29   17   18 ar
    30   17   22 1
    31   18   19 ar
    32   18   37 1
    33   19   20 ar
    34   19   21 1
    35   20   38 1
    36   23   24 2
    37   23   39 1
    38   24   25 1
    39   24   40 1
    40   25   26 2
    41   25   27 1
@<TRIPOS>MOLECULE
ZINC40567438
   41    43     0     0     0
SMALL
USER_CHARGES

@<TRIPOS>ATOM
      1 C1         -0.0167    1.3807    0.0096 C.ar      1 <0>        -0.0897
      2 C2          1.1680    2.0954    0.0022 C.ar      1 <0>        -0.0971
      3 C3          2.3782    1.4317   -0.0134 C.ar      1 <0>        -0.0148
      4 C4          2.4049    0.0335   -0.0212 C.ar      1 <0>         0.0046
      5 C5          1.2049   -0.6813   -0.0131 C.ar      1 <0>        -0.0732
      6 C6          0.0021   -0.0041    0.0020 C.ar      1 <0>        -0.0352
      7 Cl1        -1.4906   -0.8903    0.0115 Cl        1 <0>        -0.0611
      8 C7          3.6945   -0.6832   -0.0384 C.2       1 <0>         0.0233
      9 C8          4.0546   -1.7096    0.8050 C.2       1 <0>        -0.1762
     10 C9          5.3486   -2.0972    0.4475 C.2       1 <0>        -0.1655
     11 C10         5.7316   -1.2877   -0.6070 C.2       1 <0>         0.0234
     12 O1          4.7134   -0.4467   -0.8849 O.3       1 <0>        -0.1300
     13 C11         6.9711   -1.3369   -1.2800 C.2       1 <0>         0.0311
     14 C12         7.2232   -0.4770   -2.3099 C.2       1 <0>        -0.1696
     15 C13         8.3889   -0.3537   -3.1259 C.2       1 <0>         0.5299
     16 O2          9.3535   -1.0774   -2.9553 O.2       1 <0>        -0.4867
     17 N1          8.3890    0.5691   -4.0722 N.am      1 <0>        -0.4846
     18 C14         7.3182    1.3716   -4.2614 C.2       1 <0>         0.2290
     19 S1          7.1030    2.6192   -5.4139 S.2       1 <0>        -0.1577
     20 S2          6.1815    0.7961   -3.0093 S.3       1 <0>         0.0040
     21 C15         9.5677    0.7246   -4.9282 C.3       1 <0>         0.0449
     22 H1         10.3278    0.0005   -4.6351 H         1 <0>         0.1016
     23 C16        10.1262    2.1407   -4.7747 C.3       1 <0>        -0.1024
     24 C17        10.6356    2.3359   -3.3453 C.3       1 <0>        -0.1760
     25 C18        11.1857    3.7307   -3.1941 C.2       1 <0>         0.4950
     26 O3         11.1717    4.4976   -4.1418 O.co2     1 <0>        -0.6914
     27 O4         11.6449    4.0923   -2.1241 O.co2     1 <0>        -0.7186
     28 C19         9.1790    0.4909   -6.3654 C.2       1 <0>         0.5023
     29 O5          8.0507    0.7573   -6.7428 O.co2     1 <0>        -0.6535
     30 O6          9.9929    0.0355   -7.1507 O.co2     1 <0>        -0.6840
     31 Cl2         3.8634    2.3304   -0.0239 Cl        1 <0>        -0.0239
     32 H2         -0.9606    1.9052    0.0260 H         1 <0>         0.1450
     33 H3          1.1458    3.1751    0.0082 H         1 <0>         0.1498
     34 H4          1.2180   -1.7612   -0.0194 H         1 <0>         0.1482
     35 H5          3.4516   -2.1346    1.5937 H         1 <0>         0.1553
     36 H6          5.9366   -2.8784    0.9061 H         1 <0>         0.1614
     37 H7          7.7201   -2.0549   -0.9803 H         1 <0>         0.1793
     38 H8         10.9479    2.2852   -5.4762 H         1 <0>         0.0786
     39 H9          9.3395    2.8661   -4.9823 H         1 <0>         0.0944
     40 H10         9.8139    2.1914   -2.6438 H         1 <0>         0.0386
     41 H11        11.4223    1.6105   -3.1377 H         1 <0>         0.0515
@<TRIPOS>BOND
     1    1    6 ar
     2    1    2 ar
     3    1   32 1
     4    2    3 ar
     5    2   33 1
     6    3    4 ar
     7    3   31 1
     8    4    5 ar
     9    4    8 1
    10    5    6 ar
    11    5   34 1
    12    6    7 1
    13    8   12 1
    14    8    9 2
    15    9   10 1
    16    9   35 1
    17   10   11 2
    18   10   36 1
    19   11   12 1
    20   11   13 1
    21   13   14 2
    22   13   37 1
    23   14   20 1
    24   14   15 1
    25   15   16 2
    26   15   17 am
    27   17   18 1
    28   17   21 1
    29   18   19 2
    30   18   20 1
    31   21   22 1
    32   21   23 1
    33   21   28 1
    34   23   24 1
    35   23   38 1
    36   23   39 1
    37   24   25 1
    38   24   40 1
    39   24   41 1
    40   25   26 2
    41   25   27 1
    42   28   29 2
    43   28   30 1
@<TRIPOS>MOLECULE
ZINC16914557
   50    52     0     0     0
SMALL
USER_CHARGES

@<TRIPOS>ATOM
      1 C1          3.0891    1.0761    0.2117 C.3       1 <0>        -0.1076
      2 C2          2.2640   -0.1820    0.1244 C.ar      1 <0>        -0.0819
      3 C3          1.8417   -0.6470   -1.1078 C.ar      1 <0>        -0.1712
      4 C4          1.0846   -1.8009   -1.1923 C.ar      1 <0>        -0.1105
      5 C5          0.7470   -2.4928   -0.0455 C.ar      1 <0>        -0.1218
      6 C6          1.1694   -2.0285    1.1934 C.ar      1 <0>         0.1678
      7 C7          1.9352   -0.8722    1.2743 C.ar      1 <0>        -0.1515
      8 N1          0.8291   -2.7261    2.3562 N.2       1 <0>        -0.5778
      9 C8          0.7759   -2.0697    3.5586 C.2       1 <0>         0.4524
     10 N2          0.8824   -0.7710    3.7910 N.2       1 <0>        -0.7121
     11 C9          0.8132   -0.2631    5.0017 C.2       1 <0>         0.5246
     12 O1          0.9125    0.9367    5.2033 O.2       1 <0>        -0.5167
     13 C10         0.6074   -1.2272    6.1078 C.2       1 <0>        -0.2012
     14 C11         0.4963   -1.0081    7.4427 C.2       1 <0>         0.0050
     15 C12         0.4059    0.3643    7.9564 C.ar      1 <0>        -0.0902
     16 C13        -0.3001    1.3378    7.2388 C.ar      1 <0>        -0.0229
     17 C14        -0.3835    2.6243    7.7236 C.ar      1 <0>        -0.1963
     18 C15         0.2313    2.9598    8.9227 C.ar      1 <0>         0.1326
     19 C16         0.9363    1.9963    9.6434 C.ar      1 <0>         0.0664
     20 C17         1.0206    0.7025    9.1684 C.ar      1 <0>        -0.1475
     21 O2          1.5370    2.3300   10.8170 O.3       1 <0>        -0.3020
     22 C18         2.2422    1.2933   11.5025 C.3       1 <0>         0.0297
     23 O3          0.1461    4.2305    9.3949 O.3       1 <0>        -0.2692
     24 C19        -0.6797    5.1399    8.6648 C.3       1 <0>         0.0113
     25 H1         -1.5413    4.6063    8.2635 H         1 <0>         0.0670
     26 C20         0.1248    5.7479    7.5141 C.3       1 <0>        -0.1571
     27 C21        -1.1516    6.2379    9.5828 C.2       1 <0>         0.5079
     28 O4         -0.7401    6.2929   10.7292 O.co2     1 <0>        -0.6729
     29 O5         -1.9449    7.0711    9.1792 O.co2     1 <0>        -0.6921
     30 S1          0.5382   -2.7598    5.1886 S.3       1 <0>        -0.1519
     31 C22        -0.0792   -3.7497   -0.1385 C.3       1 <0>        -0.0882
     32 H2          4.1470    0.8222    0.1439 H         1 <0>         0.0582
     33 H3          2.8223    1.7431   -0.6080 H         1 <0>         0.0554
     34 H4          2.8949    1.5728    1.1623 H         1 <0>         0.0653
     35 H5          2.1037   -0.1075   -2.0060 H         1 <0>         0.1035
     36 H6          0.7564   -2.1613   -2.1561 H         1 <0>         0.1071
     37 H7          2.2690   -0.5109    2.2358 H         1 <0>         0.1385
     38 H8          0.4744   -1.8434    8.1270 H         1 <0>         0.1259
     39 H9         -0.7787    1.0800    6.3056 H         1 <0>         0.1285
     40 H10        -0.9282    3.3743    7.1694 H         1 <0>         0.1345
     41 H11         1.5629   -0.0454    9.7278 H         1 <0>         0.1279
     42 H12         2.6726    1.6925   12.4210 H         1 <0>         0.0916
     43 H13         1.5531    0.4846   11.7458 H         1 <0>         0.0476
     44 H14         3.0389    0.9119   10.8638 H         1 <0>         0.0474
     45 H15         0.9865    6.2815    7.9153 H         1 <0>         0.0567
     46 H16         0.4662    4.9538    6.8500 H         1 <0>         0.0533
     47 H17        -0.5051    6.4416    6.9571 H         1 <0>         0.0702
     48 H18         0.5804   -4.6109   -0.2449 H         1 <0>         0.0533
     49 H19        -0.6769   -3.8594    0.7664 H         1 <0>         0.0688
     50 H20        -0.7386   -3.6879   -1.0042 H         1 <0>         0.0442
@<TRIPOS>BOND
     1    1    2 1
     2    1   32 1
     3    1   33 1
     4    1   34 1
     5    2    7 ar
     6    2    3 ar
     7    3    4 ar
     8    3   35 1
     9    4    5 ar
    10    4   36 1
    11    5    6 ar
    12    5   31 1
    13    6    7 ar
    14    6    8 1
    15    7   37 1
    16    8    9 1
    17    9   30 1
    18    9   10 2
    19   10   11 1
    20   11   12 2
    21   11   13 1
    22   13   14 2
    23   13   30 1
    24   14   15 1
    25   14   38 1
    26   15   20 ar
    27   15   16 ar
    28   16   17 ar
    29   16   39 1
    30   17   18 ar
    31   17   40 1
    32   18   19 ar
    33   18   23 1
    34   19   20 ar
    35   19   21 1
    36   20   41 1
    37   21   22 1
    38   22   42 1
    39   22   43 1
    40   22   44 1
    41   23   24 1
    42   24   25 1
    43   24   26 1
    44   24   27 1
    45   26   45 1
    46   26   46 1
    47   26   47 1
    48   27   28 2
    49   27   29 1
    50   31   48 1
    51   31   49 1
    52   31   50 1
@<TRIPOS>MOLECULE
ZINC13093176
   53    55     0     0     0
SMALL
USER_CHARGES
5-[[2-[[5-(4-diethylaminophenyl)-1,3,4-oxadiazol-2-yl]sulfanyl]acetyl]amino]benzene-1,3-dicarboxylic acid
@<TRIPOS>ATOM
      1 C1         -7.3685   17.2581    0.3827 C.3       1 <0>        -0.1738
      2 C2         -6.8104   17.1113   -1.0343 C.3       1 <0>         0.1153
      3 N1         -5.3524   16.9819   -0.9739 N.pl3     1 <0>        -0.6223
      4 C3         -4.5079   18.1777   -1.0288 C.3       1 <0>         0.1156
      5 C4         -4.1634   18.4924   -2.4860 C.3       1 <0>        -0.1739
      6 C5         -4.7680   15.7195   -0.8642 C.ar      1 <0>         0.2401
      7 C6         -3.3838   15.5984   -0.8070 C.ar      1 <0>        -0.2009
      8 C7         -2.8036   14.3534   -0.6990 C.ar      1 <0>        -0.0159
      9 C8         -3.6073   13.2122   -0.6470 C.ar      1 <0>        -0.0826
     10 C9         -4.9970   13.3370   -0.7100 C.ar      1 <0>        -0.0319
     11 C10        -5.5710   14.5854   -0.8126 C.ar      1 <0>        -0.1998
     12 C11        -2.9887   11.8760   -0.5318 C.2       1 <0>         0.2133
     13 N2         -1.7049   11.6177   -0.4695 N.2       1 <0>        -0.2753
     14 N3         -1.5284   10.3469   -0.3749 N.2       1 <0>        -0.2916
     15 C12        -2.6935    9.7427   -0.3731 C.2       1 <0>         0.1218
     16 O1         -3.6416   10.6939   -0.4780 O.3       1 <0>        -0.2036
     17 S1         -2.9671    8.0057   -0.2616 S.3       1 <0>         0.1605
     18 C13        -1.2561    7.4238   -0.1611 C.3       1 <0>        -0.1587
     19 C14        -1.2420    5.9206   -0.0558 C.2       1 <0>         0.5215
     20 O2         -2.2861    5.3033   -0.0494 O.2       1 <0>        -0.4995
     21 N4         -0.0693    5.2620    0.0311 N.am      1 <0>        -0.6495
     22 C15        -0.0499    3.8623    0.0175 C.ar      1 <0>         0.0828
     23 C16        -0.9871    3.1646   -0.7299 C.ar      1 <0>        -0.0766
     24 C17        -0.9707    1.7684   -0.7458 C.ar      1 <0>        -0.1254
     25 C18        -0.0112    1.0760   -0.0095 C.ar      1 <0>        -0.0329
     26 C19         0.9253    1.7803    0.7450 C.ar      1 <0>        -0.1252
     27 C20         0.9062    3.1765    0.7520 C.ar      1 <0>        -0.1003
     28 C21         1.9407    1.0505    1.5322 C.2       1 <0>         0.4983
     29 O3          2.7566    1.6650    2.1896 O.co2     1 <0>        -0.6468
     30 C22        -1.9698    1.0260   -1.5420 C.2       1 <0>         0.4973
     31 O4         -2.8058    1.6302   -2.1835 O.co2     1 <0>        -0.6412
     32 H1         -7.1059   16.3779    0.9696 H         1 <0>         0.0609
     33 H2         -6.9439   18.1465    0.8502 H         1 <0>         0.0557
     34 H3         -8.4533   17.3544    0.3378 H         1 <0>         0.0648
     35 H4         -7.0730   17.9915   -1.6212 H         1 <0>         0.0744
     36 H5         -7.2350   16.2229   -1.5019 H         1 <0>         0.0785
     37 H6         -5.0431   19.0208   -0.5918 H         1 <0>         0.0742
     38 H7         -3.5899   18.0003   -0.4686 H         1 <0>         0.0785
     39 H8         -3.6283   17.6493   -2.9230 H         1 <0>         0.0611
     40 H9         -5.0815   18.6698   -3.0462 H         1 <0>         0.0557
     41 H10        -3.5351   19.3821   -2.5268 H         1 <0>         0.0646
     42 H11        -2.7630   16.4812   -0.8476 H         1 <0>         0.1320
     43 H12        -1.7285   14.2600   -0.6550 H         1 <0>         0.1386
     44 H13        -5.6211   12.4563   -0.6746 H         1 <0>         0.1321
     45 H14        -6.6457   14.6829   -0.8569 H         1 <0>         0.1309
     46 H15        -0.7770    7.8541    0.7183 H         1 <0>         0.1307
     47 H16        -0.7149    7.7304   -1.0562 H         1 <0>         0.1318
     48 H17         0.7612    5.7580    0.1031 H         1 <0>         0.4068
     49 H18        -1.7306    3.7018   -1.3000 H         1 <0>         0.1332
     50 H19         0.0038   -0.0039   -0.0200 H         1 <0>         0.1414
     51 H20         1.6345    3.7230    1.3328 H         1 <0>         0.1231
     52 O5          1.9616   -0.2964    1.5209 O.co2     1 <0>        -0.7524
     53 O6         -1.9536   -0.3209   -1.5565 O.co2     1 <0>        -0.7553
@<TRIPOS>BOND
     1    1    2 1
     2    1   32 1
     3    1   33 1
     4    1   34 1
     5    2    3 1
     6    2   35 1
     7    2   36 1
     8    3    4 1
     9    3    6 1
    10    4    5 1
    11    4   37 1
    12    4   38 1
    13    5   39 1
    14    5   40 1
    15    5   41 1
    16    6   11 ar
    17    6    7 ar
    18    7    8 ar
    19    7   42 1
    20    8    9 ar
    21    8   43 1
    22    9   10 ar
    23    9   12 1
    24   10   11 ar
    25   10   44 1
    26   11   45 1
    27   12   16 1
    28   12   13 2
    29   13   14 1
    30   14   15 2
    31   15   16 1
    32   15   17 1
    33   17   18 1
    34   18   19 1
    35   18   46 1
    36   18   47 1
    37   19   20 2
    38   19   21 am
    39   21   22 1
    40   21   48 1
    41   22   27 ar
    42   22   23 ar
    43   23   24 ar
    44   23   49 1
    45   24   25 ar
    46   24   30 1
    47   25   26 ar
    48   25   50 1
    49   26   27 ar
    50   26   28 1
    51   27   51 1
    52   28   29 2
    53   28   52 1
    54   30   31 2
    55   30   53 1
@<TRIPOS>MOLECULE
ZINC13422634
   58    60     0     0     0
SMALL
USER_CHARGES
4-[2-[[4-[[(3S,5S)-3,5-dimethyl-1-piperidyl]sulfonyl]phenyl]amino]-2-oxo-ethoxy]benzene-1,3-dicarboxylic acid
@<TRIPOS>ATOM
      1 C1          7.7677   -4.7323   -3.1122 C.3       1 <0>        -0.1570
      2 C2          9.1875   -5.2381   -3.3756 C.3       1 <0>        -0.1065
      3 H1          9.1451   -6.1386   -3.9883 H         1 <0>         0.0818
      4 C3          9.9865   -4.1584   -4.1090 C.3       1 <0>        -0.1049
      5 C4         10.0181   -2.8826   -3.2644 C.3       1 <0>        -0.1121
      6 H2          8.9988   -2.5444   -3.0778 H         1 <0>         0.0818
      7 C5         10.7120   -3.1752   -1.9304 C.3       1 <0>         0.1265
      8 N1         10.0371   -4.3096   -1.2851 N.pl3     1 <0>        -0.9959
      9 C6          9.8770   -5.5593   -2.0409 C.3       1 <0>         0.1239
     10 S1          9.4736   -4.1842    0.2671 S.o2      1 <0>         2.6919
     11 O1         10.2340   -3.1602    0.8936 O.2       1 <0>        -0.9607
     12 O2          9.4060   -5.5066    0.7827 O.2       1 <0>        -0.9556
     13 C7          7.8158   -3.5948    0.1735 C.ar      1 <0>        -0.7008
     14 C8          6.7683   -4.4930    0.0834 C.ar      1 <0>         0.0046
     15 C9          5.4677   -4.0342    0.0099 C.ar      1 <0>        -0.1428
     16 C10         5.2125   -2.6692    0.0260 C.ar      1 <0>         0.2194
     17 C11         6.2670   -1.7697    0.1108 C.ar      1 <0>        -0.1707
     18 C12         7.5650   -2.2350    0.1898 C.ar      1 <0>        -0.0018
     19 N2          3.8959   -2.2012   -0.0488 N.am      1 <0>        -0.6822
     20 C13         2.9007   -2.8916    0.5421 C.2       1 <0>         0.5108
     21 O3          3.1322   -3.9605    1.0664 O.2       1 <0>        -0.4604
     22 C14         1.5001   -2.3355    0.5514 C.3       1 <0>         0.0376
     23 O4          0.6314   -3.2437    1.2316 O.3       1 <0>        -0.2470
     24 C15        -0.6728   -2.8910    1.3291 C.ar      1 <0>         0.1436
     25 C16        -1.1112   -1.6919    0.7804 C.ar      1 <0>        -0.2501
     26 C17        -2.4338   -1.3257    0.8818 C.ar      1 <0>        -0.0412
     27 C18        -3.3502   -2.1639    1.5288 C.ar      1 <0>        -0.1716
     28 C19        -2.9220   -3.3684    2.0827 C.ar      1 <0>        -0.0018
     29 C20        -1.5818   -3.7367    1.9851 C.ar      1 <0>        -0.1607
     30 C21        -1.1198   -5.0098    2.5679 C.2       1 <0>         0.4938
     31 O5          0.0493   -5.3289    2.4811 O.co2     1 <0>        -0.6163
     32 C22        -4.7680   -1.7689    1.6286 C.2       1 <0>         0.4987
     33 O6         -5.5623   -2.4940    2.1938 O.co2     1 <0>        -0.6330
     34 C23        10.7891   -1.7935   -4.0130 C.3       1 <0>        -0.1464
     35 H3          7.2820   -4.5025   -4.0606 H         1 <0>         0.0561
     36 H4          7.1990   -5.5017   -2.5898 H         1 <0>         0.0576
     37 H5          7.8106   -3.8325   -2.4985 H         1 <0>         0.0634
     38 H6          9.5151   -3.9468   -5.0688 H         1 <0>         0.0641
     39 H7         11.0049   -4.5098   -4.2743 H         1 <0>         0.0629
     40 H8         10.6498   -2.2983   -1.2860 H         1 <0>         0.0892
     41 H9         11.7581   -3.4251   -2.1073 H         1 <0>         0.0731
     42 H10        10.8558   -6.0005   -2.2290 H         1 <0>         0.0742
     43 H11         9.2635   -6.2559   -1.4695 H         1 <0>         0.0924
     44 H12         6.9674   -5.5544    0.0709 H         1 <0>         0.1402
     45 H13         4.6499   -4.7363   -0.0597 H         1 <0>         0.1530
     46 H14         6.0721   -0.7074    0.1194 H         1 <0>         0.1353
     47 H15         8.3853   -1.5360    0.2602 H         1 <0>         0.1386
     48 H16         3.6996   -1.3798   -0.5259 H         1 <0>         0.4141
     49 H17         1.1553   -2.2021   -0.4740 H         1 <0>         0.0892
     50 H18         1.4943   -1.3739    1.0647 H         1 <0>         0.0894
     51 H19        -0.4104   -1.0429    0.2763 H         1 <0>         0.1137
     52 H20        -2.7670   -0.3902    0.4573 H         1 <0>         0.1261
     53 H21        -3.6262   -4.0142    2.5862 H         1 <0>         0.1429
     54 H22        11.8078   -2.1331   -4.2004 H         1 <0>         0.0555
     55 H23        10.2950   -1.5856   -4.9620 H         1 <0>         0.0576
     56 H24        10.8138   -0.8860   -3.4098 H         1 <0>         0.0574
     57 O7         -1.9942   -5.8194    3.1968 O.co2     1 <0>        -0.7665
     58 O8         -5.1821   -0.6040    1.0929 O.co2     1 <0>        -0.7744
@<TRIPOS>BOND
     1    1    2 1
     2    1   35 1
     3    1   36 1
     4    1   37 1
     5    2    3 1
     6    2    9 1
     7    2    4 1
     8    4    5 1
     9    4   38 1
    10    4   39 1
    11    5    6 1
    12    5    7 1
    13    5   34 1
    14    7    8 1
    15    7   40 1
    16    7   41 1
    17    8    9 1
    18    8   10 1
    19    9   42 1
    20    9   43 1
    21   10   11 2
    22   10   12 2
    23   10   13 1
    24   13   18 ar
    25   13   14 ar
    26   14   15 ar
    27   14   44 1
    28   15   16 ar
    29   15   45 1
    30   16   17 ar
    31   16   19 1
    32   17   18 ar
    33   17   46 1
    34   18   47 1
    35   19   20 am
    36   19   48 1
    37   20   21 2
    38   20   22 1
    39   22   23 1
    40   22   49 1
    41   22   50 1
    42   23   24 1
    43   24   29 ar
    44   24   25 ar
    45   25   26 ar
    46   25   51 1
    47   26   27 ar
    48   26   52 1
    49   27   28 ar
    50   27   32 1
    51   28   29 ar
    52   28   53 1
    53   29   30 1
    54   30   31 2
    55   30   57 1
    56   32   33 2
    57   32   58 1
    58   34   54 1
    59   34   55 1
    60   34   56 1
@<TRIPOS>MOLECULE
ZINC16919275
   59    61     0     0     0
SMALL
USER_CHARGES
(2S)-2-[2-ethoxy-4-[(E)-[2-[(4-ethoxycarbonylphenyl)amino]-4-oxo-thiazol-5-ylidene]methyl]phenoxy]butanoic acid
@<TRIPOS>ATOM
      1 C1         -9.6486    9.9457   -1.9422 C.3       1 <0>        -0.1497
      2 C2         -9.1751   10.3129   -0.5344 C.3       1 <0>        -0.0979
      3 C3         -8.4583    9.1146    0.0912 C.3       1 <0>         0.0385
      4 H1         -7.6665    8.7258   -0.5659 H         1 <0>         0.0730
      5 C4         -7.8853    9.5134    1.4268 C.2       1 <0>         0.4497
      6 O1         -8.2370    8.9401    2.4305 O.co2     1 <0>        -0.6169
      7 O2         -6.9841   10.5054    1.5012 O.co2     1 <0>        -0.7648
      8 O3         -9.3881    8.0447    0.2721 O.3       1 <0>        -0.2894
      9 C5         -8.8794    6.7859    0.3127 C.ar      1 <0>         0.1538
     10 C6         -7.5040    6.5943    0.2969 C.ar      1 <0>        -0.1764
     11 C7         -6.9817    5.3207    0.3436 C.ar      1 <0>        -0.0253
     12 C8         -7.8390    4.2146    0.3961 C.ar      1 <0>        -0.0878
     13 C9         -9.2258    4.4092    0.4120 C.ar      1 <0>        -0.1490
     14 C10        -9.7399    5.6900    0.3707 C.ar      1 <0>         0.0695
     15 O4        -11.0860    5.8829    0.3860 O.3       1 <0>        -0.3050
     16 C11       -11.9080    4.7155    0.4456 C.3       1 <0>         0.0521
     17 C12       -13.3811    5.1289    0.4545 C.3       1 <0>        -0.1495
     18 C13        -7.2856    2.8555    0.4404 C.2       1 <0>         0.0136
     19 C14        -6.2228    2.5297   -0.3387 C.2       1 <0>        -0.2074
     20 C15        -5.5608    3.3053   -1.4135 C.2       1 <0>         0.5269
     21 O5         -5.9436    4.4195   -1.7330 O.2       1 <0>        -0.5047
     22 N1         -4.5343    2.7298   -2.0001 N.2       1 <0>        -0.7086
     23 C16        -4.1125    1.5204   -1.6672 C.2       1 <0>         0.4614
     24 S1         -5.2279    1.0437   -0.3563 S.3       1 <0>        -0.1394
     25 N2         -3.0671    0.8075   -2.1970 N.2       1 <0>        -0.5883
     26 C17        -2.2288    1.3974   -3.1394 C.ar      1 <0>         0.2165
     27 C18        -1.5407    0.6020   -4.0513 C.ar      1 <0>        -0.1668
     28 C19        -0.7162    1.1821   -4.9880 C.ar      1 <0>        -0.0352
     29 C20        -0.5655    2.5719   -5.0193 C.ar      1 <0>        -0.2031
     30 C21        -1.2536    3.3675   -4.0981 C.ar      1 <0>        -0.0387
     31 C22        -2.0766    2.7808   -3.1641 C.ar      1 <0>        -0.1800
     32 C23         0.3167    3.1970   -6.0217 C.2       1 <0>         0.5198
     33 O6          0.9138    2.5044   -6.8218 O.2       1 <0>        -0.5349
     34 O7          0.4608    4.5365   -6.0506 O.3       1 <0>        -0.3548
     35 C24         1.3453    5.0827   -7.0643 C.3       1 <0>         0.0617
     36 C25         1.3814    6.6073   -6.9419 C.3       1 <0>        -0.1547
     37 H2        -10.1639   10.8071   -2.3920 H         1 <0>         0.0480
     38 H3        -10.3411    9.0929   -1.8853 H         1 <0>         0.0579
     39 H4         -8.7812    9.6731   -2.5613 H         1 <0>         0.0511
     40 H5         -8.4826   11.1657   -0.5913 H         1 <0>         0.0872
     41 H6        -10.0425   10.5856    0.0847 H         1 <0>         0.0651
     42 H7         -6.8421    7.4465    0.2523 H         1 <0>         0.1334
     43 H8         -5.9116    5.1750    0.3353 H         1 <0>         0.1220
     44 H9         -9.8913    3.5598    0.4562 H         1 <0>         0.1273
     45 H10       -11.7101    4.0825   -0.4320 H         1 <0>         0.0554
     46 H11       -11.6796    4.1526    1.3627 H         1 <0>         0.0561
     47 H12       -14.0138    4.2303    0.5004 H         1 <0>         0.0705
     48 H13       -13.6095    5.6917   -0.4626 H         1 <0>         0.0636
     49 H14       -13.5790    5.7619    1.3321 H         1 <0>         0.0650
     50 H15        -7.7322    2.1012    1.1049 H         1 <0>         0.1307
     51 H16        -1.6576   -0.4714   -4.0265 H         1 <0>         0.1231
     52 H17        -0.1864    0.5647   -5.6983 H         1 <0>         0.1235
     53 H18        -1.1397    4.4413   -4.1198 H         1 <0>         0.1224
     54 H19        -2.6087    3.3948   -2.4525 H         1 <0>         0.1472
     55 H20         2.3588    4.6794   -6.9224 H         1 <0>         0.0656
     56 H21         0.9760    4.8036   -8.0622 H         1 <0>         0.0659
     57 H22         2.0515    7.0210   -7.7099 H         1 <0>         0.0753
     58 H23         1.7508    6.8864   -5.9441 H         1 <0>         0.0673
     59 H24         0.3679    7.0106   -7.0838 H         1 <0>         0.0682
@<TRIPOS>BOND
     1    1    2 1
     2    1   37 1
     3    1   38 1
     4    1   39 1
     5    2    3 1
     6    2   40 1
     7    2   41 1
     8    3    4 1
     9    3    5 1
    10    3    8 1
    11    5    6 2
    12    5    7 1
    13    8    9 1
    14    9   14 ar
    15    9   10 ar
    16   10   11 ar
    17   10   42 1
    18   11   12 ar
    19   11   43 1
    20   12   13 ar
    21   12   18 1
    22   13   14 ar
    23   13   44 1
    24   14   15 1
    25   15   16 1
    26   16   17 1
    27   16   45 1
    28   16   46 1
    29   17   47 1
    30   17   48 1
    31   17   49 1
    32   18   19 2
    33   18   50 1
    34   19   24 1
    35   19   20 1
    36   20   21 2
    37   20   22 1
    38   22   23 2
    39   23   24 1
    40   23   25 1
    41   25   26 1
    42   26   31 ar
    43   26   27 ar
    44   27   28 ar
    45   27   51 1
    46   28   29 ar
    47   28   52 1
    48   29   30 ar
    49   29   32 1
    50   30   31 ar
    51   30   53 1
    52   31   54 1
    53   32   33 2
    54   32   34 1
    55   34   35 1
    56   35   36 1
    57   35   55 1
    58   35   56 1
    59   36   57 1
    60   36   58 1
    61   36   59 1
@<TRIPOS>MOLECULE
ZINC13278130
   52    56     0     0     0
SMALL
USER_CHARGES

@<TRIPOS>ATOM
      1 C1         -0.8554    1.4660    0.2791 C.3       1 <0>        -0.1392
      2 C2         -0.6498   -0.0500    0.2634 C.3       1 <0>        -0.0986
      3 C3          0.0968   -0.4428   -0.9853 C.ar      1 <0>        -0.0200
      4 C4         -0.5860   -0.9902   -2.0556 C.ar      1 <0>        -0.1199
      5 C5          0.0987   -1.3504   -3.2009 C.ar      1 <0>        -0.0372
      6 C6          1.4665   -1.1630   -3.2764 C.ar      1 <0>        -0.0652
      7 C7          2.1489   -0.6149   -2.2067 C.ar      1 <0>        -0.0318
      8 C8          1.4633   -0.2506   -1.0627 C.ar      1 <0>        -0.0494
      9 N1          2.1935    0.3411    0.0809 N.pl3     1 <0>         0.0462
     10 O1          3.3689    0.6039   -0.0232 O.2       1 <0>        -0.1720
     11 O2          1.6143    0.5615    1.1190 O.3       1 <0>        -0.1671
     12 C9          2.2132   -1.5566   -4.5247 C.3       1 <0>         0.2577
     13 H1          3.2362   -1.1828   -4.4826 H         1 <0>         0.0936
     14 C10         2.2155   -3.0599   -4.6763 C.2       1 <0>        -0.4765
     15 C11         1.5862   -3.3355   -5.8461 C.2       1 <0>         0.2991
     16 C12         1.1646   -2.0677   -6.4795 C.2       1 <0>         0.5079
     17 O3          0.5753   -1.9795   -7.5380 O.2       1 <0>        -0.4802
     18 N2          1.5303   -1.0250   -5.7099 N.am      1 <0>        -0.5031
     19 C13         1.3026    0.3097   -5.9859 C.2       1 <0>         0.3787
     20 N3          1.6380    1.3677   -5.2802 N.2       1 <0>        -0.5379
     21 C14         1.3528    2.6187   -5.6691 C.ar      1 <0>         0.0990
     22 C15         1.6593    3.8306   -4.9992 C.ar      1 <0>        -0.0890
     23 C16         1.3019    5.0282   -5.5217 C.ar      1 <0>        -0.0722
     24 C17         0.6157    5.1195   -6.7429 C.ar      1 <0>        -0.1166
     25 C18         0.2969    3.9423   -7.4316 C.ar      1 <0>        -0.0301
     26 C19         0.6601    2.7366   -6.9001 C.ar      1 <0>        -0.1705
     27 S1          0.4838    1.0397   -7.3973 S.3       1 <0>         0.0352
     28 C20         0.2370    6.4313   -7.2906 C.2       1 <0>         0.5262
     29 O4          0.5199    7.4537   -6.6808 O.co2     1 <0>        -0.6856
     30 O5         -0.3610    6.4999   -8.3559 O.co2     1 <0>        -0.6852
     31 O6          1.3785   -4.5716   -6.3521 O.3       1 <0>        -0.5840
     32 C21         2.7671   -3.9986   -3.7729 C.2       1 <0>         0.4551
     33 O7          2.6078   -5.1872   -3.9602 O.2       1 <0>        -0.4987
     34 C22         3.5526   -3.5227   -2.5781 C.3       1 <0>        -0.2053
     35 C23         4.8619   -4.2473   -2.2592 C.3       1 <0>        -0.1564
     36 C24         3.6351   -4.4570   -1.3692 C.3       1 <0>        -0.1616
     37 H2          0.1139    1.9643    0.2634 H         1 <0>         0.0551
     38 H3         -1.4312    1.7637   -0.5972 H         1 <0>         0.0525
     39 H4         -1.3954    1.7501    1.1823 H         1 <0>         0.0637
     40 H5         -0.0740   -0.3477    1.1398 H         1 <0>         0.1038
     41 H6         -1.6191   -0.5483    0.2791 H         1 <0>         0.0742
     42 H7         -1.6544   -1.1366   -1.9967 H         1 <0>         0.1420
     43 H8         -0.4345   -1.7787   -4.0367 H         1 <0>         0.1333
     44 H9          3.2174   -0.4688   -2.2656 H         1 <0>         0.1507
     45 H10         2.1859    3.7981   -4.0568 H         1 <0>         0.1218
     46 H11         1.5502    5.9330   -4.9867 H         1 <0>         0.1353
     47 H12        -0.2304    3.9869   -8.3731 H         1 <0>         0.1352
     48 H13         3.5099   -2.4510   -2.3839 H         1 <0>         0.1080
     49 H14         5.1551   -5.0681   -2.9136 H         1 <0>         0.0972
     50 H15         5.6809   -3.6522   -1.8552 H         1 <0>         0.0939
     51 H16         3.6471   -3.9999   -0.3798 H         1 <0>         0.0887
     52 H17         3.1213   -5.4158   -1.4382 H         1 <0>         0.0993
@<TRIPOS>BOND
     1    1    2 1
     2    1   37 1
     3    1   38 1
     4    1   39 1
     5    2    3 1
     6    2   40 1
     7    2   41 1
     8    3    8 ar
     9    3    4 ar
    10    4    5 ar
    11    4   42 1
    12    5    6 ar
    13    5   43 1
    14    6    7 ar
    15    6   12 1
    16    7    8 ar
    17    7   44 1
    18    8    9 1
    19    9   10 2
    20    9   11 1
    21   12   13 1
    22   12   18 1
    23   12   14 1
    24   14   15 2
    25   14   32 1
    26   15   16 1
    27   15   31 1
    28   16   17 2
    29   16   18 am
    30   18   19 1
    31   19   27 1
    32   19   20 2
    33   20   21 1
    34   21   26 ar
    35   21   22 ar
    36   22   23 ar
    37   22   45 1
    38   23   24 ar
    39   23   46 1
    40   24   25 ar
    41   24   28 1
    42   25   26 ar
    43   25   47 1
    44   26   27 1
    45   28   29 2
    46   28   30 1
    47   32   33 2
    48   32   34 1
    49   34   36 1
    50   34   35 1
    51   34   48 1
    52   35   36 1
    53   35   49 1
    54   35   50 1
    55   36   51 1
    56   36   52 1
@<TRIPOS>MOLECULE
ZINC13092754
   57    59     0     0     0
SMALL
USER_CHARGES

@<TRIPOS>ATOM
      1 C1         -0.0187    1.5258    0.0104 C.3       1 <0>        -0.1518
      2 C2          0.0021   -0.0041    0.0020 C.3       1 <0>         0.0557
      3 O1         -1.3386   -0.4987    0.0122 O.3       1 <0>        -0.3454
      4 C3         -1.4971   -1.8382    0.0065 C.2       1 <0>         0.5353
      5 O2         -0.5226   -2.5659   -0.0067 O.2       1 <0>        -0.4956
      6 C4         -2.8425   -2.4162    0.0162 C.2       1 <0>        -0.2306
      7 C5         -3.5479   -2.7137   -1.2187 C.2       1 <0>        -0.0551
      8 C6         -4.7768   -3.2434   -1.0392 C.2       1 <0>        -0.2368
      9 S1         -4.9741   -3.3362    0.7161 S.3       1 <0>         0.3088
     10 C7         -3.4952   -2.7084    1.2047 C.2       1 <0>         0.0641
     11 N1         -3.0336   -2.5230    2.4984 N.am      1 <0>        -0.6184
     12 C8         -3.8087   -2.8664    3.5462 C.2       1 <0>         0.5388
     13 O3         -4.9101   -3.3376    3.3570 O.2       1 <0>        -0.4776
     14 C9         -3.3068   -2.6648    4.9528 C.3       1 <0>        -0.1038
     15 H1         -2.7724   -1.7169    5.0155 H         1 <0>         0.1238
     16 C10        -2.3618   -3.8087    5.3259 C.3       1 <0>        -0.1439
     17 S2         -4.7125   -2.6434    6.0991 S.3       1 <0>         0.0305
     18 C11        -3.9863   -2.2562    7.6570 C.ar      1 <0>         0.2520
     19 N2         -4.7560   -2.1612    8.7345 N.ar      1 <0>        -0.5758
     20 C12        -4.2029   -1.8690    9.9066 C.ar      1 <0>         0.4218
     21 O4         -4.9638   -1.7660   11.0232 O.3       1 <0>        -0.6570
     22 C13        -2.8227   -1.6708    9.9651 C.ar      1 <0>        -0.0363
     23 N3         -2.1090   -1.7785    8.8602 N.ar      1 <0>        -0.2056
     24 N4         -2.6748   -2.0682    7.7411 N.ar      1 <0>        -0.4076
     25 C14        -2.1553   -1.3371   11.2744 C.3       1 <0>        -0.0108
     26 C15        -1.7386   -2.6300   11.9784 C.3       1 <0>        -0.1653
     27 C16        -1.0712   -2.2964   13.2877 C.2       1 <0>         0.4976
     28 O5         -0.9409   -1.1324   13.6264 O.co2     1 <0>        -0.7014
     29 O6         -0.6615   -3.1905   14.0084 O.co2     1 <0>        -0.7187
     30 C17        -5.7432   -3.6558   -2.1062 C.3       1 <0>        -0.0258
     31 C18        -4.9841   -3.7384   -3.4387 C.3       1 <0>        -0.0880
     32 H2         -4.3281   -4.6088   -3.4319 H         1 <0>         0.0755
     33 C19        -4.1478   -2.4673   -3.6123 C.3       1 <0>        -0.1110
     34 C20        -2.9891   -2.4663   -2.6122 C.3       1 <0>        -0.0604
     35 C21        -5.9833   -3.8587   -4.5912 C.3       1 <0>        -0.1459
     36 H3          1.0039    1.9031    0.0027 H         1 <0>         0.0792
     37 H4         -0.5459    1.8868   -0.8726 H         1 <0>         0.0650
     38 H5         -0.5289    1.8773    0.9072 H         1 <0>         0.0692
     39 H6          0.5123   -0.3556   -0.8948 H         1 <0>         0.0662
     40 H7          0.5293   -0.3651    0.8851 H         1 <0>         0.0695
     41 H8         -2.1527   -2.1461    2.6497 H         1 <0>         0.4215
     42 H9         -2.8962   -4.7566    5.2632 H         1 <0>         0.0675
     43 H10        -1.5171   -3.8216    4.6371 H         1 <0>         0.0593
     44 H11        -1.9988   -3.6629    6.3433 H         1 <0>         0.1056
     45 H12        -1.2732   -0.7249   11.0870 H         1 <0>         0.0617
     46 H13        -2.8516   -0.7870   11.9073 H         1 <0>         0.0771
     47 H14        -2.6207   -3.2423   12.1659 H         1 <0>         0.0563
     48 H15        -1.0423   -3.1802   11.3455 H         1 <0>         0.0499
     49 H16        -6.1653   -4.6309   -1.8628 H         1 <0>         0.0802
     50 H17        -6.5419   -2.9181   -2.1835 H         1 <0>         0.0818
     51 H18        -3.7505   -2.4310   -4.6266 H         1 <0>         0.0678
     52 H19        -4.7766   -1.5938   -3.4396 H         1 <0>         0.0679
     53 H20        -2.4858   -1.4998   -2.6380 H         1 <0>         0.0723
     54 H21        -2.2829   -3.2559   -2.8685 H         1 <0>         0.0776
     55 H22        -6.6356   -2.9855   -4.5991 H         1 <0>         0.0565
     56 H23        -5.4429   -3.9172   -5.5360 H         1 <0>         0.0555
     57 H24        -6.5831   -4.7592   -4.4594 H         1 <0>         0.0570
@<TRIPOS>BOND
     1    1    2 1
     2    1   36 1
     3    1   37 1
     4    1   38 1
     5    2    3 1
     6    2   39 1
     7    2   40 1
     8    3    4 1
     9    4    5 2
    10    4    6 1
    11    6   10 2
    12    6    7 1
    13    7   34 1
    14    7    8 2
    15    8    9 1
    16    8   30 1
    17    9   10 1
    18   10   11 1
    19   11   12 am
    20   11   41 1
    21   12   13 2
    22   12   14 1
    23   14   15 1
    24   14   16 1
    25   14   17 1
    26   16   42 1
    27   16   43 1
    28   16   44 1
    29   17   18 1
    30   18   19 ar
    31   18   24 ar
    32   19   20 ar
    33   20   21 1
    34   20   22 ar
    35   22   23 ar
    36   22   25 1
    37   23   24 ar
    38   25   26 1
    39   25   45 1
    40   25   46 1
    41   26   27 1
    42   26   47 1
    43   26   48 1
    44   27   28 2
    45   27   29 1
    46   30   31 1
    47   30   49 1
    48   30   50 1
    49   31   32 1
    50   31   33 1
    51   31   35 1
    52   33   34 1
    53   33   51 1
    54   33   52 1
    55   34   53 1
    56   34   54 1
    57   35   55 1
    58   35   56 1
    59   35   57 1
@<TRIPOS>MOLECULE
ZINC12296181
   61    63     0     0     0
SMALL
USER_CHARGES
(2R,5R,6R)-6-[[(4S)-4-(4-butoxyphenyl)-5-hydroxy-5-oxo-pentanoyl]amino]-3,3-dimethyl-7-oxo-4-thia-1-azabicyclo[3.2.0]heptane-2-carboxylic acid
@<TRIPOS>ATOM
      1 C1         10.8572   -2.4906   -5.9655 C.3       1 <0>        -0.1498
      2 C2          9.5387   -1.7710   -5.6744 C.3       1 <0>        -0.1236
      3 C3          9.5998   -1.1378   -4.2829 C.3       1 <0>        -0.1169
      4 C4          8.2814   -0.4182   -3.9917 C.3       1 <0>         0.0583
      5 O1          8.3384    0.1732   -2.6921 O.3       1 <0>        -0.3226
      6 C5          7.2392    0.8554   -2.2759 C.ar      1 <0>         0.1025
      7 C6          7.2259    1.4548   -1.0248 C.ar      1 <0>        -0.1527
      8 C7          6.1075    2.1481   -0.6042 C.ar      1 <0>        -0.0812
      9 C8          5.0021    2.2450   -1.4290 C.ar      1 <0>        -0.0551
     10 C9          5.0107    1.6438   -2.6741 C.ar      1 <0>        -0.0687
     11 C10         6.1288    0.9541   -3.1016 C.ar      1 <0>        -0.2027
     12 C11         3.7834    3.0020   -0.9677 C.3       1 <0>        -0.0992
     13 H1          3.9590    3.3987    0.0322 H         1 <0>         0.0756
     14 C12         2.5785    2.0595   -0.9380 C.3       1 <0>        -0.0687
     15 C13         1.3708    2.7938   -0.3523 C.3       1 <0>        -0.1407
     16 C14         0.1841    1.8654   -0.3230 C.2       1 <0>         0.5189
     17 O2          0.2935    0.7284   -0.7306 O.2       1 <0>        -0.5353
     18 N1         -1.0002    2.3004    0.1509 N.am      1 <0>        -0.7118
     19 C15        -2.1555    1.3998    0.1737 C.3       1 <0>         0.0728
     20 H2         -1.9085    0.4122    0.5633 H         1 <0>         0.1155
     21 C16        -3.3899    2.0175    0.8328 C.3       1 <0>         0.1284
     22 H3         -3.8809    1.4347    1.6121 H         1 <0>         0.1629
     23 N2         -3.9516    1.9629   -0.5391 N.am      1 <0>        -0.5448
     24 C17        -2.9007    1.3537   -1.1370 C.2       1 <0>         0.5033
     25 O3         -2.6606    0.9440   -2.2530 O.2       1 <0>        -0.3759
     26 C18        -4.4218    3.2433   -1.0727 C.3       1 <0>         0.0504
     27 H4         -5.4319    3.4370   -0.7115 H         1 <0>         0.1026
     28 C19        -3.4759    4.3911   -0.6060 C.3       1 <0>         0.0026
     29 S1         -3.2177    3.8270    1.1360 S.3       1 <0>        -0.3060
     30 C20        -2.1660    4.3994   -1.3965 C.3       1 <0>        -0.1499
     31 C21        -4.1708    5.7531   -0.6623 C.3       1 <0>        -0.1168
     32 C22        -4.4313    3.1850   -2.5785 C.2       1 <0>         0.4667
     33 O4         -3.4526    2.8016   -3.1744 O.co2     1 <0>        -0.5836
     34 C23         3.5085    4.1388   -1.9181 C.2       1 <0>         0.4701
     35 O5          2.4569    4.1899   -2.5109 O.co2     1 <0>        -0.6216
     36 H5         11.6780   -1.7745   -5.9279 H         1 <0>         0.0543
     37 H6         11.0191   -3.2684   -5.2193 H         1 <0>         0.0540
     38 H7         10.8137   -2.9417   -6.9569 H         1 <0>         0.0543
     39 H8          8.7179   -2.4871   -5.7120 H         1 <0>         0.0650
     40 H9          9.3768   -0.9932   -6.4207 H         1 <0>         0.0653
     41 H10        10.4207   -0.4217   -4.2453 H         1 <0>         0.0710
     42 H11         9.7617   -1.9156   -3.5366 H         1 <0>         0.0706
     43 H12         7.4605   -1.1343   -4.0293 H         1 <0>         0.0590
     44 H13         8.1195    0.3596   -4.7380 H         1 <0>         0.0595
     45 H14         8.0893    1.3797   -0.3803 H         1 <0>         0.1214
     46 H15         6.0968    2.6152    0.3695 H         1 <0>         0.1243
     47 H16         4.1442    1.7168   -3.3146 H         1 <0>         0.1248
     48 H17         6.1367    0.4884   -4.0760 H         1 <0>         0.1199
     49 H18         2.8110    1.1920   -0.3203 H         1 <0>         0.0532
     50 H19         2.3481    1.7323   -1.9519 H         1 <0>         0.0721
     51 H20         1.1384    3.6613   -0.9700 H         1 <0>         0.1233
     52 H21         1.6013    3.1210    0.6616 H         1 <0>         0.0803
     53 H22        -1.0877    3.2098    0.4769 H         1 <0>         0.4125
     54 H23        -2.3665    4.6859   -2.4289 H         1 <0>         0.0856
     55 H24        -1.4758    5.1143   -0.9485 H         1 <0>         0.0601
     56 H25        -1.7225    3.4040   -1.3752 H         1 <0>         0.0805
     57 H26        -5.0450    5.7421   -0.0113 H         1 <0>         0.0658
     58 H27        -3.4798    6.5276   -0.3297 H         1 <0>         0.0638
     59 H28        -4.4828    5.9597   -1.6861 H         1 <0>         0.0832
     60 O6         -5.5269    3.5589   -3.2578 O.co2     1 <0>        -0.7582
     61 O7          4.4320    5.0946   -2.1061 O.co2     1 <0>        -0.7685
@<TRIPOS>BOND
     1    1    2 1
     2    1   36 1
     3    1   37 1
     4    1   38 1
     5    2    3 1
     6    2   39 1
     7    2   40 1
     8    3    4 1
     9    3   41 1
    10    3   42 1
    11    4    5 1
    12    4   43 1
    13    4   44 1
    14    5    6 1
    15    6   11 ar
    16    6    7 ar
    17    7    8 ar
    18    7   45 1
    19    8    9 ar
    20    8   46 1
    21    9   10 ar
    22    9   12 1
    23   10   11 ar
    24   10   47 1
    25   11   48 1
    26   12   13 1
    27   12   14 1
    28   12   34 1
    29   14   15 1
    30   14   49 1
    31   14   50 1
    32   15   16 1
    33   15   51 1
    34   15   52 1
    35   16   17 2
    36   16   18 am
    37   18   19 1
    38   18   53 1
    39   19   20 1
    40   19   24 1
    41   19   21 1
    42   21   22 1
    43   21   29 1
    44   21   23 1
    45   23   24 am
    46   23   26 1
    47   24   25 2
    48   26   27 1
    49   26   28 1
    50   26   32 1
    51   28   29 1
    52   28   30 1
    53   28   31 1
    54   30   54 1
    55   30   55 1
    56   30   56 1
    57   31   57 1
    58   31   58 1
    59   31   59 1
    60   32   33 2
    61   32   60 1
    62   34   35 2
    63   34   61 1
@<TRIPOS>MOLECULE
ZINC19814291
   53    55     0     0     0
SMALL
USER_CHARGES
2-[2-allyl-6-methoxy-4-[(Z)-[1-(m-tolyl)-4,6-dioxo-2-thioxo-hexahydropyrimidin-5-ylidene]methyl]phenoxy]acetic acid
@<TRIPOS>ATOM
      1 C1          3.2990    3.7006   -5.6786 C.3       1 <0>        -0.1098
      2 C2          4.3821    3.4394   -4.6638 C.ar      1 <0>        -0.0826
      3 C3          5.3463    4.4004   -4.4197 C.ar      1 <0>        -0.1192
      4 C4          6.3418    4.1644   -3.4897 C.ar      1 <0>        -0.1086
      5 C5          6.3730    2.9693   -2.7976 C.ar      1 <0>        -0.0898
      6 C6          5.4096    2.0006   -3.0442 C.ar      1 <0>         0.1697
      7 C7          4.4110    2.2406   -3.9789 C.ar      1 <0>        -0.0921
      8 N1          5.4414    0.7856   -2.3474 N.am      1 <0>        -0.5115
      9 C8          4.6904    0.6440   -1.2358 C.2       1 <0>         0.5501
     10 O1          3.9899    1.5540   -0.8346 O.2       1 <0>        -0.4767
     11 C9          4.7417   -0.6460   -0.5198 C.2       1 <0>        -0.2843
     12 C10         4.0008   -0.8656    0.6254 C.2       1 <0>         0.0732
     13 C11         3.3696    0.2594    1.3151 C.ar      1 <0>        -0.0754
     14 C12         4.0726    1.4608    1.4922 C.ar      1 <0>        -0.0451
     15 C13         3.4754    2.5168    2.1410 C.ar      1 <0>        -0.0753
     16 C14         2.1767    2.3977    2.6221 C.ar      1 <0>         0.1075
     17 C15         1.4698    1.2064    2.4504 C.ar      1 <0>         0.0876
     18 C16         2.0587    0.1413    1.8015 C.ar      1 <0>        -0.1668
     19 O2          0.1997    1.0957    2.9237 O.3       1 <0>        -0.3004
     20 C17        -0.4261   -0.1839    2.8093 C.3       1 <0>         0.0234
     21 O3          1.5918    3.4456    3.2562 O.3       1 <0>        -0.2951
     22 C18         1.6932    3.4801    4.6811 C.3       1 <0>         0.0303
     23 C19         0.8988    4.6450    5.2131 C.2       1 <0>         0.4721
     24 O4          0.3066    5.3711    4.4502 O.co2     1 <0>        -0.6128
     25 O5          0.8491    4.8760    6.5345 O.co2     1 <0>        -0.7680
     26 C20         4.2315    3.8066    2.3307 C.3       1 <0>        -0.0434
     27 C21         3.8315    4.7858    1.2573 C.2       1 <0>        -0.1478
     28 C22         3.3264    5.9487    1.5868 C.2       1 <0>        -0.1794
     29 C23         5.6249   -1.6891   -1.0788 C.2       1 <0>         0.5347
     30 O6          5.7250   -2.7764   -0.5427 O.3       1 <0>        -0.5234
     31 N2          6.3135   -1.4046   -2.2034 N.2       1 <0>        -0.6284
     32 C24         6.2176   -0.2086   -2.8006 C.2       1 <0>         0.5492
     33 S1          7.1360    0.0639   -4.2194 S.2       1 <0>        -0.6947
     34 H1          3.4402    4.6997   -6.1166 H         1 <0>         0.0625
     35 H2          2.3163    3.6513   -5.1869 H         1 <0>         0.0660
     36 H3          3.3501    2.9414   -6.4730 H         1 <0>         0.0669
     37 H4          5.3213    5.3373   -4.9564 H         1 <0>         0.1181
     38 H5          7.0935    4.9166   -3.3015 H         1 <0>         0.1220
     39 H6          7.1485    2.7871   -2.0683 H         1 <0>         0.1170
     40 H7          3.6576    1.4907   -4.1697 H         1 <0>         0.1146
     41 H8          3.8855   -1.8864    1.0186 H         1 <0>         0.1534
     42 H9          5.0819    1.5563    1.1198 H         1 <0>         0.1190
     43 H10         1.5124   -0.7807    1.6679 H         1 <0>         0.1303
     44 H11        -1.4423   -0.1337    3.2274 H         1 <0>         0.0974
     45 H12         0.1619   -0.9304    3.3633 H         1 <0>         0.0519
     46 H13        -0.4795   -0.4724    1.7492 H         1 <0>         0.0515
     47 H14         1.2960    2.5436    5.0997 H         1 <0>         0.0545
     48 H15         2.7483    3.5928    4.9710 H         1 <0>         0.0520
     49 H16         3.9948    4.2285    3.3186 H         1 <0>         0.0789
     50 H17         5.3120    3.6113    2.2648 H         1 <0>         0.0748
     51 H18         3.9637    4.5240    0.1971 H         1 <0>         0.1094
     52 H19         3.0344    6.6634    0.8033 H         1 <0>         0.0924
     53 H20         3.1942    6.2105    2.6470 H         1 <0>         0.1006
@<TRIPOS>BOND
     1    1    2 1
     2    1   34 1
     3    1   35 1
     4    1   36 1
     5    2    7 ar
     6    2    3 ar
     7    3    4 ar
     8    3   37 1
     9    4    5 ar
    10    4   38 1
    11    5    6 ar
    12    5   39 1
    13    6    7 ar
    14    6    8 1
    15    7   40 1
    16    8   32 1
    17    8    9 am
    18    9   10 2
    19    9   11 1
    20   11   12 2
    21   11   29 1
    22   12   13 1
    23   12   41 1
    24   13   18 ar
    25   13   14 ar
    26   14   15 ar
    27   14   42 1
    28   15   16 ar
    29   15   26 1
    30   16   17 ar
    31   16   21 1
    32   17   18 ar
    33   17   19 1
    34   18   43 1
    35   19   20 1
    36   20   44 1
    37   20   45 1
    38   20   46 1
    39   21   22 1
    40   22   23 1
    41   22   47 1
    42   22   48 1
    43   23   24 2
    44   23   25 1
    45   26   27 1
    46   26   49 1
    47   26   50 1
    48   27   28 2
    49   27   51 1
    50   28   52 1
    51   28   53 1
    52   29   30 1
    53   29   31 2
    54   31   32 1
    55   32   33 2
@<TRIPOS>MOLECULE
ZINC39667955
   59    62     0     0     0
SMALL
USER_CHARGES

@<TRIPOS>ATOM
      1 C1         -0.0566    1.5480    0.0936 C.3       1 <0>        -0.1658
      2 C2         -0.0332    0.0193    0.0354 C.3       1 <0>         0.1593
      3 H1          0.4778   -0.3092   -0.8696 H         1 <0>         0.0871
      4 C3         -1.4411   -0.5152    0.0510 C.2       1 <0>        -0.0754
      5 C4         -1.6148   -1.2900    1.1176 C.2       1 <0>        -0.1912
      6 C5         -0.3397   -1.3474    1.9168 C.3       1 <0>         0.1783
      7 H2          0.0157   -2.3762    1.9743 H         1 <0>         0.0911
      8 N1          0.6536   -0.5151    1.2187 N.pl3     1 <0>        -0.6236
      9 C6          1.9787   -0.2798    1.6017 C.ar      1 <0>         0.2614
     10 C7          2.4839   -0.8683    2.7536 C.ar      1 <0>        -0.1857
     11 C8          3.7917   -0.6350    3.1326 C.ar      1 <0>        -0.0586
     12 C9          4.6041    0.1857    2.3645 C.ar      1 <0>        -0.0136
     13 C10         4.1022    0.7742    1.2099 C.ar      1 <0>         0.0959
     14 C11         2.7905    0.5372    0.8277 C.ar      1 <0>        -0.1983
     15 O1          4.8867    1.5763    0.4392 O.3       1 <0>        -0.3099
     16 C12         6.0794    2.0854    1.0459 C.3       1 <0>         0.0223
     17 C13         6.7837    0.9280    1.7667 C.3       1 <0>         0.0222
     18 O2          5.8901    0.4065    2.7564 O.3       1 <0>        -0.3097
     19 C14        -0.5837   -0.8021    3.3254 C.3       1 <0>        -0.1761
     20 C15        -2.8566   -1.9815    1.4627 C.2       1 <0>         0.4308
     21 O3         -3.8598   -1.7899    0.8078 O.2       1 <0>        -0.4341
     22 C16        -2.8900   -2.9320    2.6316 C.3       1 <0>        -0.1603
     23 S1         -4.5066   -3.7522    2.6981 S.3       1 <0>        -0.0171
     24 C17        -4.3879   -4.8154    4.0982 C.ar      1 <0>         0.3075
     25 N2         -3.2641   -4.8364    4.8006 N.ar      1 <0>        -0.6230
     26 C18        -3.1435   -5.6262    5.8603 C.ar      1 <0>         0.4456
     27 O4         -1.9930   -5.6446    6.5762 O.3       1 <0>        -0.6911
     28 C19        -4.2174   -6.4367    6.2270 C.ar      1 <0>        -0.2693
     29 C20        -5.3718   -6.3857    5.4687 C.ar      1 <0>         0.1566
     30 N3         -5.4265   -5.5704    4.4263 N.ar      1 <0>        -0.5845
     31 C21        -6.5574   -7.2441    5.8273 C.3       1 <0>        -0.0909
     32 C22        -4.1213   -7.3482    7.4233 C.3       1 <0>        -0.0171
     33 C23        -4.5960   -6.6026    8.6721 C.3       1 <0>        -0.1642
     34 C24        -4.4998   -7.5142    9.8683 C.2       1 <0>         0.4944
     35 O5         -4.0896   -8.6545    9.7344 O.co2     1 <0>        -0.7032
     36 O6         -4.8322   -7.1113   10.9700 O.co2     1 <0>        -0.7219
     37 H3          0.9654    1.9265    0.1124 H         1 <0>         0.0701
     38 H4         -0.5721    1.9372   -0.7844 H         1 <0>         0.0677
     39 H5         -0.5797    1.8694    0.9942 H         1 <0>         0.0638
     40 H6         -2.1956   -0.3013   -0.6916 H         1 <0>         0.1592
     41 H7          1.8540   -1.5084    3.3535 H         1 <0>         0.1407
     42 H8          4.1826   -1.0931    4.0291 H         1 <0>         0.1369
     43 H9          2.3994    0.9916   -0.0707 H         1 <0>         0.1348
     44 H10         6.7363    2.4946    0.2784 H         1 <0>         0.1171
     45 H11         5.8228    2.8641    1.7642 H         1 <0>         0.0754
     46 H12         7.0344    0.1465    1.0495 H         1 <0>         0.0727
     47 H13         7.6919    1.2923    2.2469 H         1 <0>         0.1164
     48 H14        -1.2576   -1.4700    3.8619 H         1 <0>         0.0825
     49 H15         0.3645   -0.7371    3.8591 H         1 <0>         0.0729
     50 H16        -1.0317    0.1893    3.2586 H         1 <0>         0.0598
     51 H17        -2.1071   -3.6811    2.5132 H         1 <0>         0.1231
     52 H18        -2.7256   -2.3775    3.5556 H         1 <0>         0.1288
     53 H19        -7.2050   -6.7002    6.5150 H         1 <0>         0.0655
     54 H20        -7.1137   -7.4914    4.9232 H         1 <0>         0.0594
     55 H21        -6.2110   -8.1615    6.3032 H         1 <0>         0.0741
     56 H22        -4.7486   -8.2251    7.2632 H         1 <0>         0.0496
     57 H23        -3.0862   -7.6618    7.5588 H         1 <0>         0.0636
     58 H24        -3.9687   -5.7257    8.8321 H         1 <0>         0.0540
     59 H25        -5.6310   -6.2890    8.5365 H         1 <0>         0.0439
@<TRIPOS>BOND
     1    1    2 1
     2    1   37 1
     3    1   38 1
     4    1   39 1
     5    2    3 1
     6    2    8 1
     7    2    4 1
     8    4    5 2
     9    4   40 1
    10    5    6 1
    11    5   20 1
    12    6    7 1
    13    6    8 1
    14    6   19 1
    15    8    9 1
    16    9   14 ar
    17    9   10 ar
    18   10   11 ar
    19   10   41 1
    20   11   12 ar
    21   11   42 1
    22   12   18 1
    23   12   13 ar
    24   13   14 ar
    25   13   15 1
    26   14   43 1
    27   15   16 1
    28   16   17 1
    29   16   44 1
    30   16   45 1
    31   17   18 1
    32   17   46 1
    33   17   47 1
    34   19   48 1
    35   19   49 1
    36   19   50 1
    37   20   21 2
    38   20   22 1
    39   22   23 1
    40   22   51 1
    41   22   52 1
    42   23   24 1
    43   24   30 ar
    44   24   25 ar
    45   25   26 ar
    46   26   27 1
    47   26   28 ar
    48   28   29 ar
    49   28   32 1
    50   29   30 ar
    51   29   31 1
    52   31   53 1
    53   31   54 1
    54   31   55 1
    55   32   33 1
    56   32   56 1
    57   32   57 1
    58   33   34 1
    59   33   58 1
    60   33   59 1
    61   34   35 2
    62   34   36 1
@<TRIPOS>MOLECULE
ZINC13217127
   50    53     0     0     0
SMALL
USER_CHARGES

@<TRIPOS>ATOM
      1 C1         -0.3187    1.9402   -0.5273 C.ar      1 <0>        -0.1153
      2 C2          0.9312    2.5209   -0.4165 C.ar      1 <0>        -0.0331
      3 C3          2.0369    1.7355   -0.1504 C.ar      1 <0>        -0.0645
      4 C4          1.8931    0.3693    0.0054 C.ar      1 <0>        -0.0516
      5 C5          0.6435   -0.2111   -0.1045 C.ar      1 <0>        -0.0503
      6 C6         -0.4624    0.5744   -0.3720 C.ar      1 <0>        -0.0639
      7 N1          0.4897   -1.6739    0.0614 N.pl3     1 <0>         0.0420
      8 O1          1.4425   -2.3507    0.3706 O.2       1 <0>        -0.1639
      9 O2         -0.5888   -2.1918   -0.1123 O.3       1 <0>        -0.1746
     10 C7          3.3994    2.3682   -0.0306 C.3       1 <0>         0.2592
     11 H1          4.0878    1.6838    0.4652 H         1 <0>         0.0839
     12 C8          3.9250    2.7329   -1.3993 C.2       1 <0>        -0.5089
     13 C9          4.1072    4.0746   -1.4029 C.2       1 <0>         0.2764
     14 C10         3.7221    4.6202   -0.0850 C.2       1 <0>         0.5072
     15 O3          3.7721    5.7940    0.2253 O.2       1 <0>        -0.5079
     16 N2          3.3077    3.6249    0.7220 N.am      1 <0>        -0.5477
     17 C11         2.8676    3.7632    2.0412 C.ar      1 <0>         0.1562
     18 C12         2.4711    2.6448    2.7637 C.ar      1 <0>        -0.1549
     19 C13         2.0372    2.7850    4.0672 C.ar      1 <0>        -0.0904
     20 C14         1.9971    4.0369    4.6535 C.ar      1 <0>        -0.0483
     21 C15         2.3911    5.1523    3.9371 C.ar      1 <0>        -0.0892
     22 C16         2.8311    5.0186    2.6349 C.ar      1 <0>        -0.1511
     23 C17         1.5226    4.1860    6.0760 C.3       1 <0>        -0.1522
     24 C18         2.6965    4.0617    7.0128 C.2       1 <0>         0.4960
     25 O4          3.8148    3.8699    6.5667 O.co2     1 <0>        -0.6835
     26 O5          2.5279    4.1531    8.2168 O.co2     1 <0>        -0.7111
     27 O6          4.5686    4.8003   -2.4473 O.3       1 <0>        -0.6442
     28 C19         4.1867    1.8121   -2.5093 C.2       1 <0>         0.5080
     29 O7          3.5263    1.8848   -3.5288 O.2       1 <0>        -0.4717
     30 C20         5.2523    0.7957   -2.3903 C.ar      1 <0>        -0.1504
     31 C21         6.0582    0.7548   -1.2496 C.ar      1 <0>        -0.0360
     32 C22         7.0506   -0.1954   -1.1440 C.ar      1 <0>        -0.1660
     33 C23         7.2503   -1.1101   -2.1673 C.ar      1 <0>         0.1096
     34 C24         6.4536   -1.0739   -3.3020 C.ar      1 <0>        -0.1699
     35 C25         5.4542   -0.1320   -3.4156 C.ar      1 <0>        -0.0470
     36 F1          8.2247   -2.0395   -2.0585 F         1 <0>        -0.1433
     37 H2         -1.1833    2.5545   -0.7308 H         1 <0>         0.1439
     38 H3          1.0435    3.5881   -0.5382 H         1 <0>         0.1368
     39 H4          2.7572   -0.2445    0.2127 H         1 <0>         0.1505
     40 H5         -1.4387    0.1209   -0.4583 H         1 <0>         0.1472
     41 H6          2.5019    1.6669    2.3063 H         1 <0>         0.1126
     42 H7          1.7285    1.9161    4.6293 H         1 <0>         0.1138
     43 H8          2.3582    6.1285    4.3978 H         1 <0>         0.1157
     44 H9          3.1428    5.8895    2.0775 H         1 <0>         0.1455
     45 H10         1.0580    5.1638    6.2034 H         1 <0>         0.0653
     46 H11         0.7949    3.4060    6.2999 H         1 <0>         0.0646
     47 H12         5.9039    1.4668   -0.4523 H         1 <0>         0.1460
     48 H13         7.6744   -0.2277   -0.2629 H         1 <0>         0.1383
     49 H14         6.6137   -1.7884   -4.0959 H         1 <0>         0.1337
     50 H15         4.8310   -0.1080   -4.2973 H         1 <0>         0.1384
@<TRIPOS>BOND
     1    1    6 ar
     2    1    2 ar
     3    1   37 1
     4    2    3 ar
     5    2   38 1
     6    3    4 ar
     7    3   10 1
     8    4    5 ar
     9    4   39 1
    10    5    6 ar
    11    5    7 1
    12    6   40 1
    13    7    8 2
    14    7    9 1
    15   10   11 1
    16   10   16 1
    17   10   12 1
    18   12   13 2
    19   12   28 1
    20   13   14 1
    21   13   27 1
    22   14   15 2
    23   14   16 am
    24   16   17 1
    25   17   22 ar
    26   17   18 ar
    27   18   19 ar
    28   18   41 1
    29   19   20 ar
    30   19   42 1
    31   20   21 ar
    32   20   23 1
    33   21   22 ar
    34   21   43 1
    35   22   44 1
    36   23   24 1
    37   23   45 1
    38   23   46 1
    39   24   25 2
    40   24   26 1
    41   28   29 2
    42   28   30 1
    43   30   35 ar
    44   30   31 ar
    45   31   32 ar
    46   31   47 1
    47   32   33 ar
    48   32   48 1
    49   33   34 ar
    50   33   36 1
    51   34   35 ar
    52   34   49 1
    53   35   50 1
@<TRIPOS>MOLECULE
ZINC13407790
   57    58     0     0     0
SMALL
USER_CHARGES

@<TRIPOS>ATOM
      1 C1         -0.0187    1.5258    0.0104 C.3       1 <0>        -0.1519
      2 C2          0.0021   -0.0041    0.0020 C.3       1 <0>         0.0559
      3 O1         -1.3386   -0.4987    0.0122 O.3       1 <0>        -0.3458
      4 C3         -1.4971   -1.8382    0.0065 C.2       1 <0>         0.5363
      5 O2         -0.5226   -2.5659   -0.0067 O.2       1 <0>        -0.4936
      6 C4         -2.8425   -2.4162    0.0162 C.2       1 <0>        -0.2366
      7 C5         -3.5507   -2.7149   -1.2080 C.2       1 <0>        -0.0498
      8 C6         -4.7793   -3.2433   -1.0611 C.2       1 <0>        -0.2622
      9 S1         -4.9775   -3.3365    0.7047 S.3       1 <0>         0.2989
     10 C7         -3.5020   -2.7113    1.2017 C.2       1 <0>         0.0694
     11 N1         -3.0468   -2.5294    2.4982 N.am      1 <0>        -0.6206
     12 C8         -3.8273   -2.8749    3.5412 C.2       1 <0>         0.5357
     13 O3         -4.9280   -3.3451    3.3453 O.2       1 <0>        -0.4794
     14 C9         -3.3324   -2.6772    4.9508 C.3       1 <0>        -0.1373
     15 S2         -4.6018   -3.2337    6.1210 S.3       1 <0>         0.0175
     16 C10        -3.8815   -2.9411    7.7022 C.ar      1 <0>         0.3015
     17 N2         -2.6669   -2.4149    7.7720 N.ar      1 <0>        -0.6254
     18 C11        -2.0971   -2.1825    8.9479 C.ar      1 <0>         0.4455
     19 O4         -0.8554   -1.6440    9.0151 O.3       1 <0>        -0.6908
     20 C12        -2.7943   -2.4996   10.1132 C.ar      1 <0>        -0.2673
     21 C13        -4.0583   -3.0467    9.9978 C.ar      1 <0>         0.1572
     22 N3         -4.5696   -3.2474    8.7927 N.ar      1 <0>        -0.5823
     23 C14        -4.8484   -3.4056   11.2299 C.3       1 <0>        -0.0911
     24 C15        -2.1829   -2.2519   11.4682 C.3       1 <0>        -0.0177
     25 C16        -2.5497   -0.8447   11.9437 C.3       1 <0>        -0.1644
     26 C17        -1.9383   -0.5970   13.2986 C.2       1 <0>         0.4944
     27 O5         -1.2710   -1.4654   13.8343 O.co2     1 <0>        -0.7031
     28 O6         -2.1110    0.4719   13.8591 O.co2     1 <0>        -0.7217
     29 C18        -2.9503   -2.4503   -2.5647 C.3       1 <0>        -0.0598
     30 C19        -2.0754   -3.6364   -2.9754 C.3       1 <0>        -0.0966
     31 C20        -2.9513   -4.8779   -3.1555 C.3       1 <0>        -0.1468
     32 C21        -1.3678   -3.3159   -4.2935 C.3       1 <0>        -0.1445
     33 H1          1.0039    1.9031    0.0027 H         1 <0>         0.0791
     34 H2         -0.5459    1.8868   -0.8726 H         1 <0>         0.0647
     35 H3         -0.5289    1.8773    0.9072 H         1 <0>         0.0695
     36 H4          0.5123   -0.3556   -0.8948 H         1 <0>         0.0659
     37 H5          0.5293   -0.3651    0.8851 H         1 <0>         0.0699
     38 H6         -5.4774   -3.5394   -1.8301 H         1 <0>         0.1869
     39 H7         -2.1664   -2.1534    2.6548 H         1 <0>         0.4230
     40 H8         -2.4212   -3.2563    5.1005 H         1 <0>         0.1280
     41 H9         -3.1228   -1.6206    5.1174 H         1 <0>         0.1285
     42 H10        -5.4479   -2.5495   11.5392 H         1 <0>         0.0661
     43 H11        -5.5043   -4.2475   11.0085 H         1 <0>         0.0601
     44 H12        -4.1644   -3.6794   12.0332 H         1 <0>         0.0745
     45 H13        -2.5635   -2.9861   12.1783 H         1 <0>         0.0504
     46 H14        -1.0987   -2.3411   11.3994 H         1 <0>         0.0639
     47 H15        -2.1691   -0.1105   11.2336 H         1 <0>         0.0539
     48 H16        -3.6339   -0.7555   12.0125 H         1 <0>         0.0443
     49 H17        -3.7481   -2.3171   -3.2954 H         1 <0>         0.0788
     50 H18        -2.3415   -1.5471   -2.5228 H         1 <0>         0.0671
     51 H19        -1.3324   -3.8252   -2.2006 H         1 <0>         0.0765
     52 H20        -3.4554   -5.1062   -2.2165 H         1 <0>         0.0613
     53 H21        -3.6944   -4.6890   -3.9303 H         1 <0>         0.0524
     54 H22        -2.3280   -5.7229   -3.4481 H         1 <0>         0.0515
     55 H23        -0.7438   -2.4314   -4.1652 H         1 <0>         0.0514
     56 H24        -0.7445   -4.1609   -4.5861 H         1 <0>         0.0547
     57 H25        -2.1109   -3.1270   -5.0683 H         1 <0>         0.0537
@<TRIPOS>BOND
     1    1    2 1
     2    1   33 1
     3    1   34 1
     4    1   35 1
     5    2    3 1
     6    2   36 1
     7    2   37 1
     8    3    4 1
     9    4    5 2
    10    4    6 1
    11    6   10 2
    12    6    7 1
    13    7    8 2
    14    7   29 1
    15    8    9 1
    16    8   38 1
    17    9   10 1
    18   10   11 1
    19   11   12 am
    20   11   39 1
    21   12   13 2
    22   12   14 1
    23   14   40 1
    24   14   41 1
    25   14   15 1
    26   15   16 1
    27   16   22 ar
    28   16   17 ar
    29   17   18 ar
    30   18   19 1
    31   18   20 ar
    32   20   24 1
    33   20   21 ar
    34   21   22 ar
    35   21   23 1
    36   23   42 1
    37   23   43 1
    38   23   44 1
    39   24   25 1
    40   24   45 1
    41   24   46 1
    42   25   26 1
    43   25   47 1
    44   25   48 1
    45   26   27 2
    46   26   28 1
    47   29   30 1
    48   29   49 1
    49   29   50 1
    50   30   31 1
    51   30   32 1
    52   30   51 1
    53   31   52 1
    54   31   53 1
    55   31   54 1
    56   32   55 1
    57   32   56 1
    58   32   57 1
@<TRIPOS>MOLECULE
ZINC09884805
   41    43     0     0     0
SMALL
USER_CHARGES
2-[5-[[5-(2,3-dichlorophenyl)-2-furyl]methylene]-4-oxo-2-thioxo-thiazolidin-3-yl]pentanedioic acid
@<TRIPOS>ATOM
      1 C1         -0.8165    3.2922   -0.9823 C.ar      1 <0>        -0.1067
      2 C2          0.4931    2.9009   -0.7966 C.ar      1 <0>        -0.0764
      3 C3          0.8044    1.5438   -0.6822 C.ar      1 <0>         0.0006
      4 C4         -0.2160    0.5907   -0.7570 C.ar      1 <0>        -0.0087
      5 C5         -1.5223    0.9971   -0.9489 C.ar      1 <0>        -0.0330
      6 C6         -1.8223    2.3449   -1.0551 C.ar      1 <0>        -0.0913
      7 Cl1        -2.7911   -0.1835   -1.0494 Cl        1 <0>        -0.0435
      8 Cl2         0.1585   -1.0986   -0.6161 Cl        1 <0>        -0.0185
      9 C7          2.2032    1.1183   -0.4840 C.2       1 <0>         0.0368
     10 C8          3.2814    1.5263   -1.2359 C.2       1 <0>        -0.1930
     11 C9          4.4090    0.8879   -0.7131 C.2       1 <0>        -0.1599
     12 C10         3.9736    0.1097    0.3446 C.2       1 <0>         0.0006
     13 O1          2.6393    0.2708    0.4658 O.3       1 <0>        -0.0823
     14 C11         4.7858   -0.7072    1.1600 C.2       1 <0>         0.0565
     15 C12         4.2552   -1.3146    2.2613 C.2       1 <0>        -0.1910
     16 C13         2.9750   -1.1365    2.8690 C.2       1 <0>         0.5240
     17 O2          2.1671   -0.3487    2.4105 O.2       1 <0>        -0.4413
     18 N1          2.6916   -1.8557    3.9411 N.am      1 <0>        -0.4852
     19 C14         3.5911   -2.7244    4.4537 C.2       1 <0>         0.3009
     20 S1          3.4412   -3.7402    5.8236 S.2       1 <0>        -0.2658
     21 S2          4.9763   -2.5440    3.3402 S.3       1 <0>        -0.0047
     22 C15         1.3859   -1.7036    4.5876 C.3       1 <0>         0.0705
     23 H1          0.7947   -0.9669    4.0437 H         1 <0>         0.1094
     24 C16         1.5828   -1.2346    6.0306 C.3       1 <0>        -0.1058
     25 C17         2.2008    0.1651    6.0321 C.3       1 <0>        -0.1508
     26 C18         2.3948    0.6270    7.4533 C.2       1 <0>         0.4653
     27 O3          2.0720   -0.0897    8.3709 O.co2     1 <0>        -0.6311
     28 C19         0.6660   -3.0275    4.5836 C.2       1 <0>         0.4800
     29 O4          1.1899   -3.9986    4.0911 O.co2     1 <0>        -0.6238
     30 H2         -1.0575    4.3412   -1.0708 H         1 <0>         0.1436
     31 H3          1.2764    3.6423   -0.7395 H         1 <0>         0.1437
     32 H4         -2.8458    2.6578   -1.2002 H         1 <0>         0.1440
     33 H5          3.2600    2.2104   -2.0714 H         1 <0>         0.1534
     34 H6          5.4249    0.9834   -1.0669 H         1 <0>         0.1587
     35 H7          5.8271   -0.8516    0.9126 H         1 <0>         0.1757
     36 H8          0.6187   -1.2067    6.5384 H         1 <0>         0.0916
     37 H9          2.2470   -1.9255    6.5498 H         1 <0>         0.0928
     38 H10         3.1649    0.1371    5.5243 H         1 <0>         0.0432
     39 H11         1.5366    0.8560    5.5129 H         1 <0>         0.0583
     40 O5          2.9263    1.8347    7.6999 O.co2     1 <0>        -0.7897
     41 O6         -0.5572   -3.1281    5.1271 O.co2     1 <0>        -0.7471
@<TRIPOS>BOND
     1    1    6 ar
     2    1    2 ar
     3    1   30 1
     4    2    3 ar
     5    2   31 1
     6    3    4 ar
     7    3    9 1
     8    4    5 ar
     9    4    8 1
    10    5    6 ar
    11    5    7 1
    12    6   32 1
    13    9   13 1
    14    9   10 2
    15   10   11 1
    16   10   33 1
    17   11   12 2
    18   11   34 1
    19   12   13 1
    20   12   14 1
    21   14   15 2
    22   14   35 1
    23   15   21 1
    24   15   16 1
    25   16   17 2
    26   16   18 am
    27   18   19 1
    28   18   22 1
    29   19   20 2
    30   19   21 1
    31   22   23 1
    32   22   24 1
    33   22   28 1
    34   24   25 1
    35   24   36 1
    36   24   37 1
    37   25   26 1
    38   25   38 1
    39   25   39 1
    40   26   27 2
    41   26   40 1
    42   28   29 2
    43   28   41 1
@<TRIPOS>MOLECULE
ZINC16934332
   46    48     0     0     0
SMALL
USER_CHARGES
3-[[(5Z)-5-[[3-(2-carboxyethyloxy)phenyl]methylene]-3-methyl-4-oxo-thiazolidin-2-ylidene]amino]benzoic acid
@<TRIPOS>ATOM
      1 C1          4.9138    1.0266    0.6122 C.3       1 <0>         0.0744
      2 N1          3.5972    1.6543    0.4750 N.am      1 <0>        -0.5427
      3 C2          2.5243    0.8974    0.3181 C.2       1 <0>         0.5602
      4 O1          2.6011   -0.3166    0.2846 O.2       1 <0>        -0.4975
      5 C3          1.2287    1.5938    0.1810 C.2       1 <0>        -0.2170
      6 C4         -0.0126    1.0758    0.0080 C.2       1 <0>         0.0619
      7 C5         -1.1900    1.9544    0.0631 C.ar      1 <0>        -0.0570
      8 C6         -1.0915    3.2266    0.6383 C.ar      1 <0>        -0.1360
      9 C7         -2.1975    4.0487    0.6832 C.ar      1 <0>        -0.0748
     10 C8         -3.4078    3.6169    0.1707 C.ar      1 <0>        -0.1849
     11 C9         -3.5181    2.3543   -0.3971 C.ar      1 <0>         0.1360
     12 C10        -2.4148    1.5207   -0.4537 C.ar      1 <0>        -0.1245
     13 O2         -4.7106    1.9371   -0.8981 O.3       1 <0>        -0.3197
     14 C11        -5.8073    2.8486   -0.8066 C.3       1 <0>         0.0766
     15 C12        -7.0552    2.2080   -1.4178 C.3       1 <0>        -0.1563
     16 C13        -8.2118    3.1693   -1.3213 C.2       1 <0>         0.4675
     17 O3         -8.0542    4.2552   -0.8155 O.co2     1 <0>        -0.6386
     18 S1          1.7363    3.3022    0.3126 S.3       1 <0>        -0.0115
     19 C14         3.4884    3.0273    0.5172 C.2       1 <0>         0.3605
     20 N2          4.4423    3.9177    0.6706 N.2       1 <0>        -0.4415
     21 C15         4.1369    5.2518    0.6875 C.ar      1 <0>         0.0632
     22 C16         3.2620    5.7824   -0.2648 C.ar      1 <0>        -0.1429
     23 C17         2.9485    7.1266   -0.2454 C.ar      1 <0>        -0.1206
     24 C18         3.5047    7.9585    0.7062 C.ar      1 <0>        -0.0710
     25 C19         4.3852    7.4433    1.6606 C.ar      1 <0>        -0.1043
     26 C20         4.7021    6.0860    1.6511 C.ar      1 <0>        -0.0553
     27 C21         4.9796    8.3353    2.6776 C.2       1 <0>         0.4918
     28 O4          5.7453    7.8860    3.5066 O.co2     1 <0>        -0.6293
     29 H1          5.1145    0.8297    1.6653 H         1 <0>         0.0714
     30 H2          4.9284    0.0882    0.0579 H         1 <0>         0.0858
     31 H3          5.6780    1.6949    0.2155 H         1 <0>         0.0918
     32 H4         -0.1358    0.0186   -0.1748 H         1 <0>         0.1575
     33 H5         -0.1492    3.5656    1.0428 H         1 <0>         0.1366
     34 H6         -2.1197    5.0316    1.1238 H         1 <0>         0.1326
     35 H7         -4.2710    4.2646    0.2126 H         1 <0>         0.1386
     36 H8         -2.4994    0.5389   -0.8957 H         1 <0>         0.1368
     37 H9         -5.9964    3.0856    0.2404 H         1 <0>         0.0656
     38 H10        -5.5659    3.7631   -1.3483 H         1 <0>         0.0659
     39 H11        -6.8661    1.9710   -2.4648 H         1 <0>         0.0759
     40 H12        -7.2966    1.2935   -0.8761 H         1 <0>         0.0757
     41 H13         2.8268    5.1384   -1.0146 H         1 <0>         0.1234
     42 H14         2.2682    7.5304   -0.9806 H         1 <0>         0.1243
     43 H15         3.2587    9.0101    0.7124 H         1 <0>         0.1353
     44 H16         5.3824    5.6825    2.3864 H         1 <0>         0.1343
     45 O5         -9.4170    2.8190   -1.7971 O.co2     1 <0>        -0.7665
     46 O6          4.6723    9.6469    2.6854 O.co2     1 <0>        -0.7516
@<TRIPOS>BOND
     1    1    2 1
     2    1   29 1
     3    1   30 1
     4    1   31 1
     5    2   19 1
     6    2    3 am
     7    3    4 2
     8    3    5 1
     9    5    6 2
    10    5   18 1
    11    6    7 1
    12    6   32 1
    13    7   12 ar
    14    7    8 ar
    15    8    9 ar
    16    8   33 1
    17    9   10 ar
    18    9   34 1
    19   10   11 ar
    20   10   35 1
    21   11   12 ar
    22   11   13 1
    23   12   36 1
    24   13   14 1
    25   14   15 1
    26   14   37 1
    27   14   38 1
    28   15   16 1
    29   15   39 1
    30   15   40 1
    31   16   17 2
    32   16   45 1
    33   18   19 1
    34   19   20 2
    35   20   21 1
    36   21   26 ar
    37   21   22 ar
    38   22   23 ar
    39   22   41 1
    40   23   24 ar
    41   23   42 1
    42   24   25 ar
    43   24   43 1
    44   25   26 ar
    45   25   27 1
    46   26   44 1
    47   27   28 2
    48   27   46 1
@<TRIPOS>MOLECULE
ZINC16919065
   50    52     0     0     0
SMALL
USER_CHARGES
(2S)-2-[4-[(E)-(2-anilino-4-oxo-thiazol-5-ylidene)methyl]-2-ethoxy-phenoxy]butanoic acid
@<TRIPOS>ATOM
      1 C1          8.7761    6.7381    2.2124 C.3       1 <0>        -0.1523
      2 C2          9.3211    7.9443    1.4451 C.3       1 <0>        -0.1231
      3 C3          9.4071    7.6048   -0.0443 C.3       1 <0>         0.0367
      4 H1          8.4522    7.2172   -0.4289 H         1 <0>         0.0780
      5 C4          9.8266    8.8298   -0.8153 C.2       1 <0>         0.4733
      6 O1         10.8441    8.8146   -1.4667 O.co2     1 <0>        -0.6170
      7 O2          9.0699    9.9378   -0.7784 O.co2     1 <0>        -0.7603
      8 O3         10.3681    6.5657   -0.2413 O.3       1 <0>        -0.2778
      9 C5          9.9018    5.2901   -0.2607 C.ar      1 <0>         0.1354
     10 C6          8.5365    5.0508   -0.1755 C.ar      1 <0>        -0.1922
     11 C7          8.0568    3.7599   -0.1999 C.ar      1 <0>        -0.0278
     12 C8          8.9481    2.6843   -0.2996 C.ar      1 <0>        -0.0810
     13 C9         10.3246    2.9271   -0.3859 C.ar      1 <0>        -0.1493
     14 C10        10.7955    4.2249   -0.3664 C.ar      1 <0>         0.0715
     15 O4         12.1316    4.4644   -0.4500 O.3       1 <0>        -0.3011
     16 C11        12.9894    3.3264   -0.5558 C.3       1 <0>         0.0525
     17 C12        14.4449    3.7908   -0.6386 C.3       1 <0>        -0.1506
     18 C13         8.4405    1.3069   -0.3197 C.2       1 <0>        -0.0005
     19 C14         7.4313    0.9433    0.5119 C.2       1 <0>        -0.1970
     20 C15         6.7990    1.6939    1.6219 C.2       1 <0>         0.5247
     21 O5          7.1589    2.8204    1.9247 O.2       1 <0>        -0.5146
     22 N1          5.8247    1.0825    2.2586 N.2       1 <0>        -0.7132
     23 C16         5.4284   -0.1406    1.9439 C.2       1 <0>         0.4529
     24 S1          6.4907   -0.5765    0.5759 S.3       1 <0>        -0.1514
     25 N2          4.4377   -0.8897    2.5242 N.2       1 <0>        -0.5838
     26 C17         3.6263   -0.3286    3.5147 C.ar      1 <0>         0.1640
     27 C18         3.4324    1.0462    3.5595 C.ar      1 <0>        -0.1556
     28 C19         2.6299    1.5972    4.5391 C.ar      1 <0>        -0.1074
     29 C20         2.0192    0.7819    5.4744 C.ar      1 <0>        -0.1768
     30 C21         2.2101   -0.5871    5.4326 C.ar      1 <0>        -0.1136
     31 C22         3.0117   -1.1446    4.4560 C.ar      1 <0>        -0.1476
     32 H2          8.7143    6.9822    3.2832 H         1 <0>         0.0480
     33 H3          9.4482    5.8790    2.0703 H         1 <0>         0.0559
     34 H4          7.7740    6.4860    1.8353 H         1 <0>         0.0567
     35 H5          8.6490    8.8034    1.5872 H         1 <0>         0.0828
     36 H6         10.3232    8.1965    1.8222 H         1 <0>         0.0634
     37 H7          7.8486    5.8795   -0.0944 H         1 <0>         0.1385
     38 H8          6.9942    3.5771   -0.1376 H         1 <0>         0.1225
     39 H9         11.0160    2.1013   -0.4671 H         1 <0>         0.1275
     40 H10        12.8588    2.6853    0.3285 H         1 <0>         0.0553
     41 H11        12.7339    2.7576   -1.4620 H         1 <0>         0.0555
     42 H12        15.1052    2.9148   -0.7200 H         1 <0>         0.0704
     43 H13        14.7004    4.3596    0.2676 H         1 <0>         0.0649
     44 H14        14.5755    4.4319   -1.5229 H         1 <0>         0.0664
     45 H15         8.8781    0.5695   -1.0087 H         1 <0>         0.1289
     46 H16         3.9085    1.6833    2.8289 H         1 <0>         0.1399
     47 H17         2.4787    2.6660    4.5745 H         1 <0>         0.1065
     48 H18         1.3954    1.2158    6.2419 H         1 <0>         0.1037
     49 H19         1.7317   -1.2209    6.1646 H         1 <0>         0.1072
     50 H20         3.1601   -2.2138    4.4237 H         1 <0>         0.1115
@<TRIPOS>BOND
     1    1    2 1
     2    1   32 1
     3    1   33 1
     4    1   34 1
     5    2    3 1
     6    2   35 1
     7    2   36 1
     8    3    4 1
     9    3    5 1
    10    3    8 1
    11    5    6 2
    12    5    7 1
    13    8    9 1
    14    9   14 ar
    15    9   10 ar
    16   10   11 ar
    17   10   37 1
    18   11   12 ar
    19   11   38 1
    20   12   13 ar
    21   12   18 1
    22   13   14 ar
    23   13   39 1
    24   14   15 1
    25   15   16 1
    26   16   17 1
    27   16   40 1
    28   16   41 1
    29   17   42 1
    30   17   43 1
    31   17   44 1
    32   18   19 2
    33   18   45 1
    34   19   24 1
    35   19   20 1
    36   20   21 2
    37   20   22 1
    38   22   23 2
    39   23   24 1
    40   23   25 1
    41   25   26 1
    42   26   31 ar
    43   26   27 ar
    44   27   28 ar
    45   27   46 1
    46   28   29 ar
    47   28   47 1
    48   29   30 ar
    49   29   48 1
    50   30   31 ar
    51   30   49 1
    52   31   50 1
@<TRIPOS>MOLECULE
ZINC13277465
   50    53     0     0     0
SMALL
USER_CHARGES

@<TRIPOS>ATOM
      1 C1         -0.1089    1.7851    0.2106 C.3       1 <0>        -0.1063
      2 C2         -0.2564    0.3011   -0.0057 C.ar      1 <0>        -0.0856
      3 C3         -0.4615   -0.1920   -1.2811 C.ar      1 <0>        -0.1347
      4 C4         -0.5971   -1.5492   -1.4878 C.ar      1 <0>        -0.0803
      5 C5         -0.5272   -2.4311   -0.4059 C.ar      1 <0>        -0.1357
      6 C6         -0.3201   -1.9331    0.8816 C.ar      1 <0>        -0.0715
      7 C7         -0.1799   -0.5676    1.0770 C.ar      1 <0>         0.1320
      8 N1          0.0334   -0.0639    2.3634 N.am      1 <0>        -0.5620
      9 C8         -1.0078    0.3351    3.3174 C.3       1 <0>         0.2551
     10 H1         -1.6077    1.1442    2.9007 H         1 <0>         0.0787
     11 C9         -0.2854    0.8094    4.5567 C.2       1 <0>        -0.4852
     12 C10         1.0421    0.6828    4.3075 C.2       1 <0>         0.2960
     13 C11         1.2292    0.1349    2.9468 C.2       1 <0>         0.5084
     14 O1          2.3041   -0.0990    2.4310 O.2       1 <0>        -0.5170
     15 O2          2.0350    1.0022    5.1673 O.3       1 <0>        -0.5989
     16 C12        -0.8785    1.2925    5.7466 C.2       1 <0>         0.4510
     17 O3         -0.1788    1.6440    6.6741 O.2       1 <0>        -0.5084
     18 C13        -2.3789    1.3707    5.8626 C.3       1 <0>        -0.2100
     19 C14        -2.9745    2.6359    6.4835 C.3       1 <0>        -0.1595
     20 C15        -2.9823    1.3223    7.2678 C.3       1 <0>        -0.1620
     21 C16        -1.8868   -0.8436    3.6478 C.ar      1 <0>        -0.0654
     22 C17        -1.3265   -2.0946    3.8284 C.ar      1 <0>        -0.0376
     23 C18        -2.1327   -3.1756    4.1314 C.ar      1 <0>        -0.1039
     24 C19        -3.4993   -3.0059    4.2545 C.ar      1 <0>        -0.0331
     25 C20        -4.0592   -1.7551    4.0749 C.ar      1 <0>        -0.0480
     26 C21        -3.2523   -0.6729    3.7760 C.ar      1 <0>        -0.0566
     27 N2         -5.5224   -1.5735    4.2062 N.pl3     1 <0>         0.0421
     28 O4         -6.1029   -0.7999    3.4807 O.2       1 <0>        -0.1703
     29 O5         -6.1368   -2.1986    5.0388 O.3       1 <0>        -0.1637
     30 C22        -4.3783   -4.1847    4.5840 C.3       1 <0>        -0.1177
     31 C23        -0.6724   -3.8833   -0.6237 C.2       1 <0>         0.5250
     32 O6         -0.8541   -4.3171   -1.7525 O.co2     1 <0>        -0.6925
     33 O7         -0.6108   -4.6530    0.3246 O.co2     1 <0>        -0.6859
     34 H2          0.9420    2.0619    0.1261 H         1 <0>         0.0648
     35 H3         -0.6874    2.3212   -0.5416 H         1 <0>         0.0601
     36 H4         -0.4745    2.0456    1.2039 H         1 <0>         0.0653
     37 H5         -0.5162    0.4879   -2.1184 H         1 <0>         0.1168
     38 H6         -0.7576   -1.9301   -2.4856 H         1 <0>         0.1260
     39 H7         -0.2652   -2.6093    1.7219 H         1 <0>         0.1272
     40 H8         -2.9382    0.8932    5.0581 H         1 <0>         0.1117
     41 H9         -2.2810    3.4117    6.8080 H         1 <0>         0.0961
     42 H10        -3.9257    2.9912    6.0873 H         1 <0>         0.0905
     43 H11        -3.9387    0.8133    7.3876 H         1 <0>         0.0871
     44 H12        -2.2939    1.2338    8.1083 H         1 <0>         0.0989
     45 H13        -0.2590   -2.2272    3.7322 H         1 <0>         0.1368
     46 H14        -1.6951   -4.1530    4.2718 H         1 <0>         0.1458
     47 H15        -3.6895    0.3052    3.6393 H         1 <0>         0.1450
     48 H16        -4.5586   -4.2145    5.6585 H         1 <0>         0.0866
     49 H17        -5.3285   -4.0875    4.0587 H         1 <0>         0.0674
     50 H18        -3.8838   -5.1049    4.2729 H         1 <0>         0.0774
@<TRIPOS>BOND
     1    1    2 1
     2    1   34 1
     3    1   35 1
     4    1   36 1
     5    2    7 ar
     6    2    3 ar
     7    3    4 ar
     8    3   37 1
     9    4    5 ar
    10    4   38 1
    11    5    6 ar
    12    5   31 1
    13    6    7 ar
    14    6   39 1
    15    7    8 1
    16    8   13 am
    17    8    9 1
    18    9   10 1
    19    9   11 1
    20    9   21 1
    21   11   12 2
    22   11   16 1
    23   12   13 1
    24   12   15 1
    25   13   14 2
    26   16   17 2
    27   16   18 1
    28   18   20 1
    29   18   19 1
    30   18   40 1
    31   19   20 1
    32   19   41 1
    33   19   42 1
    34   20   43 1
    35   20   44 1
    36   21   26 ar
    37   21   22 ar
    38   22   23 ar
    39   22   45 1
    40   23   24 ar
    41   23   46 1
    42   24   25 ar
    43   24   30 1
    44   25   26 ar
    45   25   27 1
    46   26   47 1
    47   27   28 2
    48   27   29 1
    49   30   48 1
    50   30   49 1
    51   30   50 1
    52   31   32 2
    53   31   33 1
@<TRIPOS>MOLECULE
ZINC13448049
   51    52     0     0     0
SMALL
USER_CHARGES

@<TRIPOS>ATOM
      1 C1         -0.0187    1.5258    0.0104 C.3       1 <0>        -0.1517
      2 C2          0.0021   -0.0041    0.0020 C.3       1 <0>         0.0554
      3 O1          0.6709   -0.4649   -1.1737 O.3       1 <0>        -0.3454
      4 C3          0.7760   -1.8000   -1.3349 C.2       1 <0>         0.5364
      5 O2          0.3117   -2.5519   -0.4991 O.2       1 <0>        -0.4950
      6 C4          1.4489   -2.3441   -2.5162 C.2       1 <0>        -0.2343
      7 C5          2.8676   -2.6206   -2.5232 C.2       1 <0>        -0.0625
      8 C6          3.3626   -3.1186   -3.6710 C.2       1 <0>        -0.2356
      9 S1          1.9339   -3.2129   -4.7273 S.3       1 <0>         0.3006
     10 C7          0.7563   -2.6267   -3.6858 C.2       1 <0>         0.0676
     11 N1         -0.5968   -2.4608   -3.9362 N.am      1 <0>        -0.6203
     12 C8         -1.1046   -2.7903   -5.1403 C.2       1 <0>         0.5356
     13 O3         -0.3776   -3.2319   -6.0048 O.2       1 <0>        -0.4799
     14 C9         -2.5758   -2.6099   -5.4126 C.3       1 <0>        -0.1370
     15 S2         -2.9463   -3.1385   -7.1079 S.3       1 <0>         0.0174
     16 C10        -4.6802   -2.8696   -7.2689 C.ar      1 <0>         0.3016
     17 N2         -5.3558   -2.3743   -6.2417 N.ar      1 <0>        -0.6254
     18 C11        -6.6625   -2.1603   -6.3316 C.ar      1 <0>         0.4455
     19 O4         -7.3496   -1.6534   -5.2793 O.3       1 <0>        -0.6908
     20 C12        -7.3184   -2.4640   -7.5242 C.ar      1 <0>        -0.2672
     21 C13        -6.5783   -2.9787   -8.5718 C.ar      1 <0>         0.1571
     22 N3         -5.2759   -3.1624   -8.4160 N.ar      1 <0>        -0.5823
     23 C14        -7.2449   -3.3220   -9.8790 C.3       1 <0>        -0.0910
     24 C15        -8.8012   -2.2364   -7.6673 C.3       1 <0>        -0.0177
     25 C16        -9.0516   -0.8221   -8.1945 C.3       1 <0>        -0.1642
     26 C17       -10.5345   -0.5946   -8.3376 C.2       1 <0>         0.4943
     27 O5        -11.3183   -1.4814   -8.0450 O.co2     1 <0>        -0.7030
     28 O6        -10.9503    0.4764   -8.7459 O.co2     1 <0>        -0.7217
     29 C18         4.7851   -3.5034   -3.9863 C.3       1 <0>        -0.0595
     30 C19         3.7385   -2.3664   -1.3199 C.3       1 <0>        -0.0959
     31 H1          1.0039    1.9031    0.0027 H         1 <0>         0.0648
     32 H2         -0.5459    1.8868   -0.8726 H         1 <0>         0.0695
     33 H3         -0.5289    1.8773    0.9072 H         1 <0>         0.0793
     34 H4          0.5293   -0.3651    0.8851 H         1 <0>         0.0661
     35 H5         -1.0205   -0.3814    0.0098 H         1 <0>         0.0702
     36 H6         -1.1782   -2.1076   -3.2448 H         1 <0>         0.4230
     37 H7         -3.1518   -3.2123   -4.7101 H         1 <0>         0.1281
     38 H8         -2.8413   -1.5595   -5.2933 H         1 <0>         0.1286
     39 H9         -7.2265   -2.4522  -10.5357 H         1 <0>         0.0661
     40 H10        -6.7122   -4.1464  -10.3531 H         1 <0>         0.0601
     41 H11        -8.2781   -3.6157   -9.6939 H         1 <0>         0.0745
     42 H12        -9.2146   -2.9633   -8.3665 H         1 <0>         0.0504
     43 H13        -9.2821   -2.3525   -6.6960 H         1 <0>         0.0639
     44 H14        -8.6383   -0.0952   -7.4952 H         1 <0>         0.0539
     45 H15        -8.5708   -0.7060   -9.1658 H         1 <0>         0.0443
     46 H16         4.9442   -4.5503   -3.7277 H         1 <0>         0.0736
     47 H17         4.9732   -3.3593   -5.0503 H         1 <0>         0.0718
     48 H18         5.4669   -2.8789   -3.4090 H         1 <0>         0.0749
     49 H19         3.7642   -3.2591   -0.6949 H         1 <0>         0.0721
     50 H20         4.7491   -2.1231   -1.6476 H         1 <0>         0.0739
     51 H21         3.3319   -1.5332   -0.7467 H         1 <0>         0.0598
@<TRIPOS>BOND
     1    1    2 1
     2    1   31 1
     3    1   32 1
     4    1   33 1
     5    2    3 1
     6    2   34 1
     7    2   35 1
     8    3    4 1
     9    4    5 2
    10    4    6 1
    11    6   10 2
    12    6    7 1
    13    7    8 2
    14    7   30 1
    15    8    9 1
    16    8   29 1
    17    9   10 1
    18   10   11 1
    19   11   12 am
    20   11   36 1
    21   12   13 2
    22   12   14 1
    23   14   37 1
    24   14   38 1
    25   14   15 1
    26   15   16 1
    27   16   22 ar
    28   16   17 ar
    29   17   18 ar
    30   18   19 1
    31   18   20 ar
    32   20   24 1
    33   20   21 ar
    34   21   22 ar
    35   21   23 1
    36   23   39 1
    37   23   40 1
    38   23   41 1
    39   24   25 1
    40   24   42 1
    41   24   43 1
    42   25   26 1
    43   25   44 1
    44   25   45 1
    45   26   27 2
    46   26   28 1
    47   29   46 1
    48   29   47 1
    49   29   48 1
    50   30   49 1
    51   30   50 1
    52   30   51 1
@<TRIPOS>MOLECULE
ZINC05947814
   47    50     0     0     0
SMALL
USER_CHARGES
2-(2-benzotriazol-1-yl-1,2-diphenyl-ethyl)propanedioic acid
@<TRIPOS>ATOM
      1 C1         -3.4088    2.4767   -2.9987 C.ar      1 <0>        -0.1357
      2 C2         -4.1798    1.3380   -3.1389 C.ar      1 <0>        -0.1335
      3 C3         -3.7243    0.1298   -2.6452 C.ar      1 <0>        -0.1138
      4 C4         -2.4976    0.0603   -2.0116 C.ar      1 <0>        -0.0113
      5 C5         -1.7290    1.2001   -1.8668 C.ar      1 <0>        -0.0265
      6 C6         -2.1825    2.4075   -2.3644 C.ar      1 <0>        -0.1200
      7 C7         -2.0010   -1.2568   -1.4734 C.3       1 <0>        -0.0197
      8 H1         -2.6369   -2.0623   -1.8407 H         1 <0>         0.0810
      9 C8         -2.0426   -1.2311    0.0558 C.3       1 <0>         0.1923
     10 H2         -1.5562   -2.1244    0.4475 H         1 <0>         0.1538
     11 C9         -3.4762   -1.1957    0.5188 C.ar      1 <0>        -0.0915
     12 C10        -4.2199   -0.0390    0.3776 C.ar      1 <0>        -0.0778
     13 C11        -5.5363   -0.0079    0.7983 C.ar      1 <0>        -0.1301
     14 C12        -6.1062   -1.1306    1.3690 C.ar      1 <0>        -0.1243
     15 C13        -5.3611   -2.2858    1.5146 C.ar      1 <0>        -0.1338
     16 C14        -4.0460   -2.3183    1.0899 C.ar      1 <0>        -0.1004
     17 N1         -1.3424   -0.0402    0.5434 N.pl3     1 <0>        -0.3564
     18 C15        -0.0321    0.0339    0.9524 C.ar      1 <0>         0.0988
     19 C16         1.0047   -0.8883    1.0461 C.ar      1 <0>        -0.1087
     20 C17         2.2285   -0.4902    1.5060 C.ar      1 <0>        -0.1049
     21 C18         2.4477    0.8293    1.8808 C.ar      1 <0>        -0.1343
     22 C19         1.4475    1.7531    1.7980 C.ar      1 <0>        -0.0669
     23 C20         0.1831    1.3707    1.3300 C.ar      1 <0>        -0.0257
     24 N2         -0.9716    2.0401    1.1418 N.2       1 <0>        -0.2509
     25 N3         -1.8774    1.2488    0.6856 N.2       1 <0>        -0.0054
     26 C21        -0.5627   -1.4890   -1.9407 C.3       1 <0>        -0.1680
     27 C22        -0.1446   -2.8960   -1.5993 C.2       1 <0>         0.4685
     28 O1          0.0125   -3.7097   -2.4786 O.co2     1 <0>        -0.5840
     29 C23        -0.4805   -1.2883   -3.4320 C.2       1 <0>         0.4623
     30 O2         -0.1194   -2.1948   -4.1445 O.co2     1 <0>        -0.6040
     31 H3         -3.7643    3.4205   -3.3851 H         1 <0>         0.1002
     32 H4         -5.1378    1.3921   -3.6345 H         1 <0>         0.1015
     33 H5         -4.3266   -0.7599   -2.7547 H         1 <0>         0.1010
     34 H6         -0.7726    1.1467   -1.3680 H         1 <0>         0.0916
     35 H7         -1.5800    3.2971   -2.2552 H         1 <0>         0.0995
     36 H8         -3.7734    0.8394   -0.0646 H         1 <0>         0.1473
     37 H9         -6.1185    0.8945    0.6842 H         1 <0>         0.1163
     38 H10        -7.1336   -1.1053    1.7008 H         1 <0>         0.1125
     39 H11        -5.8063   -3.1630    1.9605 H         1 <0>         0.1165
     40 H12        -3.4638   -3.2207    1.2040 H         1 <0>         0.1262
     41 H13         0.8429   -1.9163    0.7572 H         1 <0>         0.1938
     42 H14         3.0324   -1.2078    1.5787 H         1 <0>         0.1259
     43 H15         3.4211    1.1272    2.2414 H         1 <0>         0.1210
     44 H16         1.6293    2.7762    2.0925 H         1 <0>         0.1228
     45 H17         0.1000   -0.7818   -1.4418 H         1 <0>         0.0618
     46 O3          0.0533   -3.2452   -0.3185 O.co2     1 <0>        -0.7912
     47 O4         -0.8084   -0.1025   -3.9688 O.co2     1 <0>        -0.7759
@<TRIPOS>BOND
     1    1    6 ar
     2    1    2 ar
     3    1   31 1
     4    2    3 ar
     5    2   32 1
     6    3    4 ar
     7    3   33 1
     8    4    5 ar
     9    4    7 1
    10    5    6 ar
    11    5   34 1
    12    6   35 1
    13    7    8 1
    14    7    9 1
    15    7   26 1
    16    9   10 1
    17    9   11 1
    18    9   17 1
    19   11   16 ar
    20   11   12 ar
    21   12   13 ar
    22   12   36 1
    23   13   14 ar
    24   13   37 1
    25   14   15 ar
    26   14   38 1
    27   15   16 ar
    28   15   39 1
    29   16   40 1
    30   17   25 1
    31   17   18 1
    32   18   23 ar
    33   18   19 ar
    34   19   20 ar
    35   19   41 1
    36   20   21 ar
    37   20   42 1
    38   21   22 ar
    39   21   43 1
    40   22   23 ar
    41   22   44 1
    42   23   24 1
    43   24   25 2
    44   26   27 1
    45   26   29 1
    46   26   45 1
    47   27   28 2
    48   27   46 1
    49   29   30 2
    50   29   47 1
@<TRIPOS>MOLECULE
ZINC16911277
   43    45     0     0     0
SMALL
USER_CHARGES
(2S)-2-[2-[(E)-[2-[(4-fluorophenyl)amino]-4-oxo-thiazol-5-ylidene]methyl]phenoxy]butanoic acid
@<TRIPOS>ATOM
      1 C1          0.6851    6.0607   -0.1299 C.3       1 <0>        -0.1504
      2 C2          0.4212    4.5728   -0.3691 C.3       1 <0>        -0.1000
      3 C3          1.1343    3.7492    0.7052 C.3       1 <0>         0.0415
      4 H1          0.8823    4.0966    1.7180 H         1 <0>         0.0709
      5 C4          0.7756    2.2945    0.5435 C.2       1 <0>         0.4500
      6 O1          1.6275    1.4919    0.2434 O.co2     1 <0>        -0.6149
      7 O2         -0.4903    1.8903    0.7330 O.co2     1 <0>        -0.7673
      8 O3          2.5477    3.9093    0.5681 O.3       1 <0>        -0.2952
      9 C5          3.3016    3.7018    1.6772 C.ar      1 <0>         0.1852
     10 C6          2.7126    3.2390    2.8429 C.ar      1 <0>        -0.2214
     11 C7          3.4812    3.0276    3.9714 C.ar      1 <0>        -0.0678
     12 C8          4.8445    3.2750    3.9491 C.ar      1 <0>        -0.1853
     13 C9          5.4490    3.7358    2.8004 C.ar      1 <0>        -0.0014
     14 C10         4.6840    3.9497    1.6474 C.ar      1 <0>        -0.1155
     15 C11         5.3213    4.4343    0.4175 C.2       1 <0>         0.0364
     16 C12         6.3162    5.3553    0.4860 C.2       1 <0>        -0.2221
     17 C13         6.8278    6.1148    1.6505 C.2       1 <0>         0.5318
     18 O4          6.3593    5.9720    2.7687 O.2       1 <0>        -0.5228
     19 N1          7.8144    6.9509    1.4136 N.2       1 <0>        -0.7184
     20 C14         8.3317    7.1150    0.2063 C.2       1 <0>         0.4562
     21 S1          7.3833    5.9871   -0.8027 S.3       1 <0>        -0.1417
     22 N2          9.3533    7.9451   -0.1759 N.2       1 <0>        -0.5883
     23 C15         9.9090    8.8402    0.7447 C.ar      1 <0>         0.1662
     24 C16         9.1277    9.3585    1.7693 C.ar      1 <0>        -0.1280
     25 C17         9.6799   10.2374    2.6803 C.ar      1 <0>        -0.1336
     26 C18        11.0084   10.6108    2.5660 C.ar      1 <0>         0.0272
     27 C19        11.7878   10.0997    1.5418 C.ar      1 <0>        -0.1384
     28 C20        11.2413    9.2160    0.6320 C.ar      1 <0>        -0.1247
     29 F1         11.5452   11.4748    3.4552 F         1 <0>        -0.1603
     30 H2          0.1724    6.6528   -0.9023 H         1 <0>         0.0498
     31 H3          1.7670    6.2535   -0.1780 H         1 <0>         0.0601
     32 H4          0.3056    6.3455    0.8625 H         1 <0>         0.0491
     33 H5         -0.6607    4.3800   -0.3210 H         1 <0>         0.0858
     34 H6          0.8006    4.2880   -1.3615 H         1 <0>         0.0676
     35 H7          1.6508    3.0435    2.8695 H         1 <0>         0.1259
     36 H8          3.0164    2.6667    4.8770 H         1 <0>         0.1140
     37 H9          5.4359    3.1060    4.8368 H         1 <0>         0.1139
     38 H10         6.5118    3.9276    2.7878 H         1 <0>         0.1277
     39 H11         4.9928    4.0512   -0.5599 H         1 <0>         0.1346
     40 H12         8.0903    9.0710    1.8562 H         1 <0>         0.1411
     41 H13         9.0739   10.6370    3.4801 H         1 <0>         0.1186
     42 H14        12.8238   10.3919    1.4547 H         1 <0>         0.1205
     43 H15        11.8495    8.8173   -0.1665 H         1 <0>         0.1233
@<TRIPOS>BOND
     1    1    2 1
     2    1   30 1
     3    1   31 1
     4    1   32 1
     5    2    3 1
     6    2   33 1
     7    2   34 1
     8    3    4 1
     9    3    5 1
    10    3    8 1
    11    5    6 2
    12    5    7 1
    13    8    9 1
    14    9   14 ar
    15    9   10 ar
    16   10   11 ar
    17   10   35 1
    18   11   12 ar
    19   11   36 1
    20   12   13 ar
    21   12   37 1
    22   13   14 ar
    23   13   38 1
    24   14   15 1
    25   15   16 2
    26   15   39 1
    27   16   21 1
    28   16   17 1
    29   17   18 2
    30   17   19 1
    31   19   20 2
    32   20   21 1
    33   20   22 1
    34   22   23 1
    35   23   28 ar
    36   23   24 ar
    37   24   25 ar
    38   24   40 1
    39   25   26 ar
    40   25   41 1
    41   26   27 ar
    42   26   29 1
    43   27   28 ar
    44   27   42 1
    45   28   43 1
@<TRIPOS>MOLECULE
ZINC39986063
   36    39     0     0     0
SMALL
USER_CHARGES

@<TRIPOS>ATOM
      1 C1         -0.0164    1.3572    0.0095 C.ar      1 <0>        -0.1684
      2 C2          1.1679    2.0910    0.0021 C.ar      1 <0>        -0.0979
      3 C3          2.3774    1.4656   -0.0132 C.ar      1 <0>        -0.1387
      4 C4          2.4326    0.0616   -0.0212 C.ar      1 <0>         0.0409
      5 C5          1.2321   -0.6838   -0.0133 C.ar      1 <0>        -0.0646
      6 C6          0.0021   -0.0041    0.0020 C.ar      1 <0>        -0.0329
      7 C7          1.2718   -2.0964   -0.0207 C.ar      1 <0>         0.3340
      8 C8          2.4858   -2.7284   -0.0357 C.ar      1 <0>        -0.2563
      9 C9          3.6600   -1.9956   -0.0430 C.ar      1 <0>        -0.0451
     10 C10         3.6882   -0.6043   -0.0377 C.ar      1 <0>        -0.0624
     11 O1          4.9273   -0.0743   -0.0475 O.3       1 <0>        -0.2852
     12 C11         6.0147   -0.8586   -0.0629 C.2       1 <0>         0.4586
     13 O2          7.1835   -0.5212   -0.0727 O.2       1 <0>        -0.4342
     14 S1          5.3847   -2.4185   -0.0607 S.3       1 <0>        -0.0119
     15 N1          0.0886   -2.8373   -0.0125 N.2       1 <0>        -1.0616
     16 S2          0.1479   -4.4922   -0.0214 S.o2      1 <0>         2.6200
     17 O3          0.7004   -4.8721   -1.2743 O.2       1 <0>        -1.0157
     18 O4          0.7255   -4.8845    1.2163 O.2       1 <0>        -1.0255
     19 C12        -1.5155   -5.0732   -0.0075 C.ar      1 <0>        -0.6393
     20 C13        -2.1569   -5.3014    1.1975 C.ar      1 <0>        -0.0325
     21 C14        -3.4630   -5.7576    1.2181 C.ar      1 <0>        -0.1658
     22 C15        -4.1351   -5.9887    0.0359 C.ar      1 <0>        -0.0449
     23 C16        -3.4940   -5.7606   -1.1842 C.ar      1 <0>        -0.1618
     24 C17        -2.1769   -5.2940   -1.1972 C.ar      1 <0>         0.0148
     25 C18        -4.2062   -6.0054   -2.4529 C.2       1 <0>         0.5248
     26 O5         -5.3605   -6.4090   -2.4381 O.co2     1 <0>        -0.6948
     27 O6         -3.6422   -5.8047   -3.5193 O.co2     1 <0>        -0.6827
     28 H1         -0.9634    1.8761    0.0259 H         1 <0>         0.1162
     29 H2          1.1261    3.1702    0.0083 H         1 <0>         0.1135
     30 H3          3.2887    2.0452   -0.0195 H         1 <0>         0.1205
     31 H4         -0.9243   -0.5591    0.0082 H         1 <0>         0.1453
     32 H5          2.5278   -3.8075   -0.0415 H         1 <0>         0.1188
     33 H6         -1.6354   -5.1229    2.1262 H         1 <0>         0.1275
     34 H7         -3.9574   -5.9336    2.1621 H         1 <0>         0.1186
     35 H8         -5.1543   -6.3455    0.0534 H         1 <0>         0.1279
     36 H9         -1.6767   -5.1109   -2.1367 H         1 <0>         0.1407
@<TRIPOS>BOND
     1    1    6 ar
     2    1    2 ar
     3    1   28 1
     4    2    3 ar
     5    2   29 1
     6    3    4 ar
     7    3   30 1
     8    4   10 ar
     9    4    5 ar
    10    5    6 ar
    11    5    7 ar
    12    6   31 1
    13    7    8 ar
    14    7   15 1
    15    8    9 ar
    16    8   32 1
    17    9   14 1
    18    9   10 ar
    19   10   11 1
    20   11   12 1
    21   12   13 2
    22   12   14 1
    23   15   16 1
    24   16   17 2
    25   16   18 2
    26   16   19 1
    27   19   24 ar
    28   19   20 ar
    29   20   21 ar
    30   20   33 1
    31   21   22 ar
    32   21   34 1
    33   22   23 ar
    34   22   35 1
    35   23   24 ar
    36   23   25 1
    37   24   36 1
    38   25   26 2
    39   25   27 1
@<TRIPOS>MOLECULE
ZINC16908318
   46    48     0     0     0
SMALL
USER_CHARGES

@<TRIPOS>ATOM
      1 C1          0.1319    1.5091   -0.8157 C.3       1 <0>        -0.1453
      2 C2         -0.9990    2.1725   -0.0271 C.3       1 <0>        -0.0712
      3 C3         -2.2032    1.2664   -0.0171 C.ar      1 <0>        -0.1420
      4 C4         -3.1491    1.3650   -1.0210 C.ar      1 <0>        -0.1014
      5 C5         -4.2538    0.5362   -1.0148 C.ar      1 <0>        -0.1523
      6 C6         -4.4140   -0.3973    0.0013 C.ar      1 <0>         0.1629
      7 C7         -3.4619   -0.4937    1.0081 C.ar      1 <0>        -0.1441
      8 C8         -2.3568    0.3343    0.9929 C.ar      1 <0>        -0.1069
      9 N1         -5.5313   -1.2375    0.0108 N.2       1 <0>        -0.5808
     10 C9         -6.1845   -1.5222   -1.1596 C.2       1 <0>         0.4526
     11 N2         -5.8092   -1.2442   -2.3983 N.2       1 <0>        -0.7125
     12 C10        -6.5321   -1.5741   -3.4454 C.2       1 <0>         0.5247
     13 O1         -6.1753   -1.3127   -4.5828 O.2       1 <0>        -0.5168
     14 C11        -7.8057   -2.2823   -3.1676 C.2       1 <0>        -0.1913
     15 C12        -8.7482   -2.7434   -4.0260 C.2       1 <0>        -0.0067
     16 C13        -8.4963   -2.7232   -5.4743 C.ar      1 <0>        -0.0333
     17 C14        -7.2124   -2.9813   -5.9682 C.ar      1 <0>        -0.0809
     18 C15        -6.9814   -2.9616   -7.3273 C.ar      1 <0>        -0.0936
     19 C16        -8.0144   -2.6872   -8.2057 C.ar      1 <0>        -0.1966
     20 C17        -9.2922   -2.4296   -7.7265 C.ar      1 <0>         0.1203
     21 C18        -9.5396   -2.4518   -6.3650 C.ar      1 <0>        -0.1376
     22 O2        -10.3018   -2.1608   -8.5956 O.3       1 <0>        -0.3275
     23 C19        -9.9769   -2.1598   -9.9872 C.3       1 <0>         0.0839
     24 C20       -11.2308   -1.8397  -10.8034 C.3       1 <0>        -0.1806
     25 C21       -10.8881   -1.8386  -12.2710 C.2       1 <0>         0.4985
     26 O3         -9.7468   -2.0722  -12.6307 O.co2     1 <0>        -0.6964
     27 O4        -11.7522   -1.6041  -13.0986 O.co2     1 <0>        -0.7007
     28 S1         -7.7437   -2.3644   -1.3821 S.3       1 <0>        -0.1456
     29 H1          1.0028    2.1645   -0.8229 H         1 <0>         0.0471
     30 H2          0.3945    0.5610   -0.3464 H         1 <0>         0.0525
     31 H3         -0.1960    1.3293   -1.8395 H         1 <0>         0.0550
     32 H4         -0.6712    2.3524    0.9967 H         1 <0>         0.0597
     33 H5         -1.2617    3.1206   -0.4964 H         1 <0>         0.0609
     34 H6         -3.0241    2.0913   -1.8105 H         1 <0>         0.1053
     35 H7         -4.9924    0.6140   -1.7989 H         1 <0>         0.1360
     36 H8         -3.5836   -1.2184    1.7996 H         1 <0>         0.1122
     37 H9         -1.6137    0.2567    1.7728 H         1 <0>         0.1071
     38 H10        -9.6841   -3.1256   -3.6459 H         1 <0>         0.1313
     39 H11        -6.4034   -3.1953   -5.2855 H         1 <0>         0.1259
     40 H12        -5.9904   -3.1609   -7.7076 H         1 <0>         0.1188
     41 H13        -7.8262   -2.6727   -9.2691 H         1 <0>         0.1285
     42 H14       -10.5339   -2.2560   -5.9915 H         1 <0>         0.1258
     43 H15        -9.2144   -1.4055  -10.1817 H         1 <0>         0.0605
     44 H16        -9.5983   -3.1412  -10.2726 H         1 <0>         0.0601
     45 H17       -11.9933   -2.5939  -10.6089 H         1 <0>         0.0671
     46 H18       -11.6094   -0.8582  -10.5180 H         1 <0>         0.0675
@<TRIPOS>BOND
     1    1    2 1
     2    1   29 1
     3    1   30 1
     4    1   31 1
     5    2    3 1
     6    2   32 1
     7    2   33 1
     8    3    8 ar
     9    3    4 ar
    10    4    5 ar
    11    4   34 1
    12    5    6 ar
    13    5   35 1
    14    6    7 ar
    15    6    9 1
    16    7    8 ar
    17    7   36 1
    18    8   37 1
    19    9   10 1
    20   10   28 1
    21   10   11 2
    22   11   12 1
    23   12   13 2
    24   12   14 1
    25   14   15 2
    26   14   28 1
    27   15   16 1
    28   15   38 1
    29   16   21 ar
    30   16   17 ar
    31   17   18 ar
    32   17   39 1
    33   18   19 ar
    34   18   40 1
    35   19   20 ar
    36   19   41 1
    37   20   21 ar
    38   20   22 1
    39   21   42 1
    40   22   23 1
    41   23   24 1
    42   23   43 1
    43   23   44 1
    44   24   25 1
    45   24   45 1
    46   24   46 1
    47   25   26 2
    48   25   27 1
@<TRIPOS>MOLECULE
ZINC28257101
   33    34     0     0     0
SMALL
USER_CHARGES

@<TRIPOS>ATOM
      1 C1         -0.0225    1.8097    0.0120 C.3       1 <0>        -0.6364
      2 S1          0.0021   -0.0041    0.0020 S.o2      1 <0>         2.5096
      3 O1          0.8352   -0.4880    1.0465 O.2       1 <0>        -1.0410
      4 O2         -1.3147   -0.5105   -0.1678 O.2       1 <0>        -1.0409
      5 N1          0.7947   -0.4113   -1.3938 N.2       1 <0>        -1.0896
      6 C2          0.9925   -1.7593   -1.7191 C.ar      1 <0>         0.2123
      7 C3          0.5192   -2.7540   -0.8743 C.ar      1 <0>        -0.2033
      8 C4          0.7142   -4.0831   -1.1948 C.ar      1 <0>        -0.1222
      9 C5          1.3838   -4.4252   -2.3624 C.ar      1 <0>         0.1975
     10 C6          1.8576   -3.4310   -3.2079 C.ar      1 <0>        -0.2109
     11 C7          1.6576   -2.1010   -2.8902 C.ar      1 <0>        -0.0376
     12 Cl1         2.2428   -0.8575   -3.9509 Cl        1 <0>        -0.1219
     13 N2          1.5816   -5.7727   -2.6866 N.2       1 <0>        -1.0908
     14 S2          2.3801   -6.1807   -4.0788 S.o2      1 <0>         2.5785
     15 O3          1.5579   -5.7571   -5.1576 O.2       1 <0>        -1.0343
     16 O4          3.7210   -5.7367   -3.9230 O.2       1 <0>        -1.0347
     17 C8          2.4374   -7.9403   -4.1500 C.ar      1 <0>        -0.5905
     18 C9          3.4970   -8.6210   -3.5793 C.ar      1 <0>        -0.0213
     19 C10         3.5426  -10.0014   -3.6347 C.ar      1 <0>        -0.1367
     20 C11         2.5289  -10.7021   -4.2612 C.ar      1 <0>        -0.0832
     21 C12         1.4686  -10.0216   -4.8323 C.ar      1 <0>        -0.0603
     22 C13         1.4204   -8.6400   -4.7711 C.ar      1 <0>        -0.0147
     23 Cl2         0.1952  -10.9009   -5.6191 Cl        1 <0>        -0.0829
     24 H1          1.0001    2.1870    0.0043 H         1 <0>         0.1099
     25 H2         -0.5497    2.1708   -0.8711 H         1 <0>         0.1099
     26 H3         -0.5327    2.1613    0.9088 H         1 <0>         0.0899
     27 H4         -0.0013   -2.4885    0.0340 H         1 <0>         0.0978
     28 H5          0.3461   -4.8567   -0.5372 H         1 <0>         0.1005
     29 H6          2.3786   -3.6971   -4.1157 H         1 <0>         0.0940
     30 H7          4.2895   -8.0740   -3.0904 H         1 <0>         0.1434
     31 H8          4.3705  -10.5325   -3.1888 H         1 <0>         0.1329
     32 H9          2.5650  -11.7806   -4.3050 H         1 <0>         0.1301
     33 H10         0.5906   -8.1084   -5.2129 H         1 <0>         0.1468
@<TRIPOS>BOND
     1    1    2 1
     2    1   24 1
     3    1   25 1
     4    1   26 1
     5    2    3 2
     6    2    4 2
     7    2    5 1
     8    5    6 1
     9    6   11 ar
    10    6    7 ar
    11    7    8 ar
    12    7   27 1
    13    8    9 ar
    14    8   28 1
    15    9   10 ar
    16    9   13 1
    17   10   11 ar
    18   10   29 1
    19   11   12 1
    20   13   14 1
    21   14   15 2
    22   14   16 2
    23   14   17 1
    24   17   22 ar
    25   17   18 ar
    26   18   19 ar
    27   18   30 1
    28   19   20 ar
    29   19   31 1
    30   20   21 ar
    31   20   32 1
    32   21   22 ar
    33   21   23 1
    34   22   33 1
@<TRIPOS>MOLECULE
ZINC03843607
   57    59     0     0     0
SMALL
USER_CHARGES
3-(2-carboxyethyl-dimethyl-BLAHyl)propanoic acid
@<TRIPOS>ATOM
      1 C1          0.2153   -0.0055    0.2556 C.3       1 <0>        -0.1393
      2 C2          0.2631    1.5158    0.1380 C.3       1 <0>        -0.0597
      3 C3          1.7212    1.9192   -0.1948 C.3       1 <0>        -0.1187
      4 C4          2.4398    1.6465    1.1587 C.3       1 <0>        -0.1209
      5 C5          1.3476    1.7807    2.2562 C.3       1 <0>        -0.1163
      6 C6          0.1152    2.2521    1.4846 C.3       1 <0>        -0.0735
      7 H1          0.2804    3.3379    1.2820 H         1 <0>         0.0577
      8 C7         -1.2361    2.1228    2.1092 C.3       1 <0>        -0.0639
      9 H2         -1.2802    2.8262    2.9690 H         1 <0>         0.0637
     10 C8         -1.5678    0.7370    2.6450 C.3       1 <0>        -0.1083
     11 C9         -2.8817    0.8381    3.4300 C.3       1 <0>        -0.1157
     12 C10        -4.0119    1.2705    2.5082 C.3       1 <0>        -0.0725
     13 H3         -4.8890    1.5004    3.1478 H         1 <0>         0.0541
     14 C11        -3.6949    2.5255    1.7095 C.3       1 <0>        -0.0393
     15 C12        -2.3077    2.5616    1.1004 C.3       1 <0>        -0.0602
     16 H4         -2.0904    3.6276    0.8707 H         1 <0>         0.0613
     17 C13        -2.1760    1.8124   -0.2143 C.3       1 <0>        -0.1127
     18 C14        -0.7780    2.0265   -0.8291 C.3       1 <0>        -0.1029
     19 C15        -4.7631    2.6796    0.6123 C.3       1 <0>        -0.1482
     20 C16        -3.8478    3.7431    2.6469 C.3       1 <0>        -0.0869
     21 C17        -3.8031    5.0307    1.8218 C.3       1 <0>        -0.1578
     22 C18        -3.8255    6.2207    2.7462 C.2       1 <0>         0.4587
     23 O1         -3.8725    6.0558    3.9422 O.co2     1 <0>        -0.6439
     24 C19        -4.4247    0.1254    1.5835 C.3       1 <0>        -0.0914
     25 C20        -4.8549   -1.0788    2.4236 C.3       1 <0>        -0.1583
     26 C21        -5.2619   -2.2077    1.5120 C.2       1 <0>         0.4597
     27 O2         -5.2128   -2.0639    0.3133 O.co2     1 <0>        -0.6425
     28 H5          0.7918   -0.3210    1.1252 H         1 <0>         0.0548
     29 H6         -0.8195   -0.3289    0.3688 H         1 <0>         0.0663
     30 H7          0.6395   -0.4529   -0.6433 H         1 <0>         0.0460
     31 H8          2.1158    1.2862   -0.9824 H         1 <0>         0.0599
     32 H9          1.7672    2.9724   -0.4550 H         1 <0>         0.0630
     33 H10         2.8640    0.6461    1.1689 H         1 <0>         0.0595
     34 H11         3.2189    2.3906    1.3213 H         1 <0>         0.0539
     35 H12         1.1674    0.8262    2.7381 H         1 <0>         0.0672
     36 H13         1.6432    2.5330    2.9863 H         1 <0>         0.0577
     37 H14        -1.7096    0.0248    1.8384 H         1 <0>         0.0712
     38 H15        -0.7787    0.3936    3.3124 H         1 <0>         0.0501
     39 H16        -2.7590    1.5580    4.2401 H         1 <0>         0.0543
     40 H17        -3.1113   -0.1396    3.8609 H         1 <0>         0.0622
     41 H18        -2.3465    0.7515   -0.0673 H         1 <0>         0.0715
     42 H19        -2.8965    2.1883   -0.9448 H         1 <0>         0.0586
     43 H20        -0.6260    3.0920   -1.0166 H         1 <0>         0.0569
     44 H21        -0.7123    1.4829   -1.7742 H         1 <0>         0.0555
     45 H22        -4.6677    1.8643   -0.1048 H         1 <0>         0.0590
     46 H23        -5.7547    2.6518    1.0641 H         1 <0>         0.0492
     47 H24        -4.6236    3.6318    0.1005 H         1 <0>         0.0540
     48 H25        -4.8013    3.6804    3.1712 H         1 <0>         0.0539
     49 H26        -3.0340    3.7477    3.3720 H         1 <0>         0.0588
     50 H27        -2.8897    5.0497    1.2272 H         1 <0>         0.0635
     51 H28        -4.6683    5.0684    1.1599 H         1 <0>         0.0640
     52 H29        -5.2563    0.4466    0.9563 H         1 <0>         0.0624
     53 H30        -3.5809   -0.1545    0.9528 H         1 <0>         0.0602
     54 H31        -4.0233   -1.4000    3.0508 H         1 <0>         0.0628
     55 H32        -5.6987   -0.7989    3.0543 H         1 <0>         0.0573
     56 O3         -3.7934    7.4638    2.2408 O.co2     1 <0>        -0.7879
     57 O4         -5.6788   -3.3729    2.0316 O.co2     1 <0>        -0.7884
@<TRIPOS>BOND
     1    1    2 1
     2    1   28 1
     3    1   29 1
     4    1   30 1
     5    2    6 1
     6    2   18 1
     7    2    3 1
     8    3    4 1
     9    3   31 1
    10    3   32 1
    11    4    5 1
    12    4   33 1
    13    4   34 1
    14    5    6 1
    15    5   35 1
    16    5   36 1
    17    6    7 1
    18    6    8 1
    19    8    9 1
    20    8   15 1
    21    8   10 1
    22   10   11 1
    23   10   37 1
    24   10   38 1
    25   11   12 1
    26   11   39 1
    27   11   40 1
    28   12   13 1
    29   12   14 1
    30   12   24 1
    31   14   15 1
    32   14   19 1
    33   14   20 1
    34   15   16 1
    35   15   17 1
    36   17   18 1
    37   17   41 1
    38   17   42 1
    39   18   43 1
    40   18   44 1
    41   19   45 1
    42   19   46 1
    43   19   47 1
    44   20   21 1
    45   20   48 1
    46   20   49 1
    47   21   22 1
    48   21   50 1
    49   21   51 1
    50   22   23 2
    51   22   56 1
    52   24   25 1
    53   24   52 1
    54   24   53 1
    55   25   26 1
    56   25   54 1
    57   25   55 1
    58   26   27 2
    59   26   57 1
@<TRIPOS>MOLECULE
ZINC16969560
   51    51     0     0     0
SMALL
USER_CHARGES
(E,4Z)-3-methyl-4-[(2E,4E)-3-methyl-5-(2,6,6-trimethyl-1-cyclohexenyl)penta-2,4-dienylidene]pent-2-enedioic acid
@<TRIPOS>ATOM
      1 C1         -6.4073    0.3550   -1.3879 C.3       1 <0>        -0.1210
      2 C2         -7.3411    1.1092   -0.4767 C.2       1 <0>        -0.1398
      3 C3         -6.9283    2.2624    0.0247 C.2       1 <0>        -0.0630
      4 C4         -7.7494    3.1074    0.9548 C.3       1 <0>        -0.0193
      5 C5         -9.2214    2.6911    0.8806 C.3       1 <0>        -0.1068
      6 C6         -9.3031    1.1689    1.0471 C.3       1 <0>        -0.1211
      7 C7         -8.6873    0.5106   -0.1893 C.3       1 <0>        -0.0745
      8 C8         -7.2386    2.9295    2.3860 C.3       1 <0>        -0.1365
      9 C9         -7.6199    4.5777    0.5520 C.3       1 <0>        -0.1375
     10 C10        -5.6370    2.7223   -0.3317 C.2       1 <0>        -0.1963
     11 C11        -4.5462    1.9453   -0.0871 C.2       1 <0>        -0.0410
     12 C12        -3.2617    2.4288   -0.3761 C.2       1 <0>        -0.2033
     13 C13        -2.1561    1.6413   -0.1282 C.2       1 <0>        -0.0057
     14 C14        -0.8802    2.1215   -0.4153 C.2       1 <0>        -0.2044
     15 C15         0.2295    1.2892   -0.2622 C.2       1 <0>        -0.0049
     16 C16         1.5346    1.8089   -0.4422 C.2       1 <0>        -0.0961
     17 C17         2.6084    0.9779   -0.3996 C.2       1 <0>        -0.1203
     18 C18         3.9150    1.5096   -0.4535 C.2       1 <0>         0.4744
     19 O1          4.0826    2.7152   -0.4381 O.co2     1 <0>        -0.6331
     20 C19         1.7322    3.2837   -0.6810 C.3       1 <0>        -0.0826
     21 C20         0.0438   -0.1260    0.0795 C.2       1 <0>         0.4920
     22 O2          0.2689   -0.5132    1.2101 O.co2     1 <0>        -0.6269
     23 C21        -3.0890    3.8084   -0.9574 C.3       1 <0>        -0.0982
     24 H1         -5.8118   -0.3436   -0.8001 H         1 <0>         0.0642
     25 H2         -6.9879   -0.1957   -2.1280 H         1 <0>         0.0475
     26 H3         -5.7469    1.0587   -1.8945 H         1 <0>         0.0741
     27 H4         -9.6377    2.9767   -0.0854 H         1 <0>         0.0607
     28 H5         -9.7820    3.1773    1.6790 H         1 <0>         0.0587
     29 H6        -10.3460    0.8664    1.1418 H         1 <0>         0.0577
     30 H7         -8.7494    0.8676    1.9363 H         1 <0>         0.0663
     31 H8         -9.3427    0.6669   -1.0461 H         1 <0>         0.0648
     32 H9         -8.5767   -0.5591   -0.0118 H         1 <0>         0.0655
     33 H10        -6.1944    3.2376    2.4400 H         1 <0>         0.0606
     34 H11        -7.8337    3.5424    3.0630 H         1 <0>         0.0496
     35 H12        -7.3238    1.8819    2.6746 H         1 <0>         0.0547
     36 H13        -8.0489    4.7220   -0.4396 H         1 <0>         0.0510
     37 H14        -8.1515    5.1999    1.2720 H         1 <0>         0.0487
     38 H15        -6.5668    4.8588    0.5366 H         1 <0>         0.0624
     39 H16        -5.5176    3.6893   -0.7975 H         1 <0>         0.1122
     40 H17        -4.6699    0.9566    0.3295 H         1 <0>         0.1042
     41 H18        -2.2798    0.6526    0.2884 H         1 <0>         0.1128
     42 H19        -0.7499    3.1380   -0.7563 H         1 <0>         0.1221
     43 H20         2.4625   -0.0896   -0.3246 H         1 <0>         0.1112
     44 H21         0.7611    3.7700   -0.7736 H         1 <0>         0.0365
     45 H22         2.2774    3.7176    0.1572 H         1 <0>         0.0750
     46 H23         2.3009    3.4301   -1.5992 H         1 <0>         0.0650
     47 H24        -3.1135    3.7498   -2.0456 H         1 <0>         0.0529
     48 H25        -3.8966    4.4527   -0.6100 H         1 <0>         0.0517
     49 H26        -2.1321    4.2205   -0.6372 H         1 <0>         0.0603
     50 O3          4.9788    0.6810   -0.5221 O.co2     1 <0>        -0.7725
     51 O4         -0.3766   -0.9971   -0.8605 O.co2     1 <0>        -0.7521
@<TRIPOS>BOND
     1    1    2 1
     2    1   24 1
     3    1   25 1
     4    1   26 1
     5    2    7 1
     6    2    3 2
     7    3    4 1
     8    3   10 1
     9    4    5 1
    10    4    8 1
    11    4    9 1
    12    5    6 1
    13    5   27 1
    14    5   28 1
    15    6    7 1
    16    6   29 1
    17    6   30 1
    18    7   31 1
    19    7   32 1
    20    8   33 1
    21    8   34 1
    22    8   35 1
    23    9   36 1
    24    9   37 1
    25    9   38 1
    26   10   11 2
    27   10   39 1
    28   11   12 1
    29   11   40 1
    30   12   13 2
    31   12   23 1
    32   13   14 1
    33   13   41 1
    34   14   15 2
    35   14   42 1
    36   15   16 1
    37   15   21 1
    38   16   17 2
    39   16   20 1
    40   17   18 1
    41   17   43 1
    42   18   19 2
    43   18   50 1
    44   20   44 1
    45   20   45 1
    46   20   46 1
    47   21   22 2
    48   21   51 1
    49   23   47 1
    50   23   48 1
    51   23   49 1
@<TRIPOS>MOLECULE
ZINC22799600
   31    32     0     0     0
SMALL
USER_CHARGES
3-(3-benzylsulfanyl-5-oxo-4H-1,2,4-triazin-6-yl)propanoic acid
@<TRIPOS>ATOM
      1 C1         -0.0167    1.3781    0.0096 C.ar      1 <0>        -0.1272
      2 C2          1.1709    2.0855    0.0021 C.ar      1 <0>        -0.1228
      3 C3          2.3773    1.4107   -0.0141 C.ar      1 <0>        -0.1035
      4 C4          2.3960    0.0285   -0.0217 C.ar      1 <0>        -0.0589
      5 C5          1.2084   -0.6789   -0.0136 C.ar      1 <0>        -0.1035
      6 C6          0.0021   -0.0041    0.0020 C.ar      1 <0>        -0.1228
      7 C7          3.7112   -0.7071   -0.0392 C.3       1 <0>        -0.0678
      8 S1          4.2203   -0.9919   -1.7526 S.3       1 <0>        -0.0432
      9 C8          5.7400   -1.8420   -1.4830 C.ar      1 <0>         0.2624
     10 N1          6.4822   -2.2571   -2.5483 N.ar      1 <0>        -0.6295
     11 C9          7.6448   -2.9075   -2.3121 C.ar      1 <0>         0.4700
     12 O1          8.3429   -3.2975   -3.2328 O.3       1 <0>        -0.5930
     13 C10         8.0276   -3.1216   -0.9703 C.ar      1 <0>        -0.0822
     14 N2          7.2541   -2.6890   -0.0023 N.ar      1 <0>        -0.1999
     15 N3          6.1562   -2.0685   -0.2480 N.ar      1 <0>        -0.4201
     16 C11         9.3134   -3.8403   -0.6523 C.3       1 <0>        -0.0126
     17 C12         9.4827   -3.9351    0.8654 C.3       1 <0>        -0.1377
     18 C13        10.7685   -4.6538    1.1835 C.2       1 <0>         0.4602
     19 O2         11.4769   -5.0496    0.2882 O.co2     1 <0>        -0.6460
     20 O3         11.1269   -4.8543    2.4614 O.co2     1 <0>        -0.7917
     21 H1         -0.9592    1.9054    0.0170 H         1 <0>         0.1165
     22 H2          1.1563    3.1654    0.0081 H         1 <0>         0.1193
     23 H3          3.3051    1.9634   -0.0207 H         1 <0>         0.1255
     24 H4          1.2231   -1.7587   -0.0199 H         1 <0>         0.1254
     25 H5         -0.9258   -0.5567    0.0079 H         1 <0>         0.1193
     26 H6          4.4749   -0.1051    0.4750 H         1 <0>         0.1019
     27 H7          3.5981   -1.6729    0.4751 H         1 <0>         0.1018
     28 H8          9.2836   -4.8525   -1.0819 H         1 <0>         0.0671
     29 H9         10.1600   -3.2845   -1.0817 H         1 <0>         0.0672
     30 H10         9.5125   -2.9229    1.2949 H         1 <0>         0.0629
     31 H11         8.6361   -4.4908    1.2948 H         1 <0>         0.0629
@<TRIPOS>BOND
     1    1    6 ar
     2    1    2 ar
     3    1   21 1
     4    2    3 ar
     5    2   22 1
     6    3    4 ar
     7    3   23 1
     8    4    5 ar
     9    4    7 1
    10    5    6 ar
    11    5   24 1
    12    6   25 1
    13    7    8 1
    14    7   26 1
    15    7   27 1
    16    8    9 1
    17    9   15 ar
    18    9   10 ar
    19   10   11 ar
    20   11   12 1
    21   11   13 ar
    22   13   14 ar
    23   13   16 1
    24   14   15 ar
    25   16   17 1
    26   16   28 1
    27   16   29 1
    28   17   18 1
    29   17   30 1
    30   17   31 1
    31   18   19 2
    32   18   20 1
@<TRIPOS>MOLECULE
ZINC38058619
   23    24     0     0     0
SMALL
USER_CHARGES

@<TRIPOS>ATOM
      1 C1         -0.0168    1.3855    0.0097 C.2       1 <0>        -0.1693
      2 C2          1.2114    1.9976    0.0012 C.2       1 <0>        -0.0451
      3 C3          2.3314    1.2307   -0.0136 C.2       1 <0>        -0.8025
      4 S1          1.7516   -0.3460   -0.0165 S.3       1 <0>         0.2949
      5 C4          0.0021   -0.0041    0.0020 C.2       1 <0>        -0.1670
      6 C5         -1.0861   -0.9127    0.0079 C.2       1 <0>         0.5516
      7 O1         -2.2361   -0.4909    0.0216 O.co2     1 <0>        -0.6739
      8 O2         -0.8764   -2.1195   -0.0006 O.co2     1 <0>        -0.6788
      9 S2          4.0098    1.7667   -0.0272 S.o2      1 <0>         2.6566
     10 O3          4.7700    0.7067   -0.5909 O.2       1 <0>        -1.0035
     11 O4          4.0126    3.0794   -0.5715 O.2       1 <0>        -1.0062
     12 N1          4.4916    1.9076    1.5508 N.2       1 <0>        -1.0134
     13 C6          5.7801    2.3165    1.8470 C.2       1 <0>         0.2693
     14 C7          6.3555    2.4841    3.0986 C.2       1 <0>        -0.2691
     15 C8          7.7321    2.9249    3.1229 C.2       1 <0>        -0.0484
     16 C9          8.3052    3.1247    1.9219 C.2       1 <0>        -0.2684
     17 S3          7.0074    2.7165    0.7752 S.3       1 <0>        -0.0108
     18 C10         5.6235    2.2337    4.3036 C.1       1 <0>         0.3285
     19 N2          5.0428    2.0352    5.2596 N.1       1 <0>        -0.5141
     20 H1         -0.9388    1.9475    0.0258 H         1 <0>         0.1430
     21 H2          1.2858    3.0750    0.0059 H         1 <0>         0.1310
     22 H3          8.2671    3.0843    4.0474 H         1 <0>         0.1262
     23 H4          9.3120    3.4506    1.7060 H         1 <0>         0.1693
@<TRIPOS>BOND
     1    1    5 2
     2    1    2 1
     3    1   20 1
     4    2    3 2
     5    2   21 1
     6    3    4 1
     7    3    9 1
     8    4    5 1
     9    5    6 1
    10    6    7 2
    11    6    8 1
    12    9   10 2
    13    9   11 2
    14    9   12 1
    15   12   13 1
    16   13   17 1
    17   13   14 2
    18   14   15 1
    19   14   18 1
    20   15   16 2
    21   15   22 1
    22   16   17 1
    23   16   23 1
    24   18   19 3
@<TRIPOS>MOLECULE
ZINC40475610
   28    31     0     0     0
SMALL
USER_CHARGES

@<TRIPOS>ATOM
      1 C1          0.0401    1.2772    0.5011 C.ar      1 <0>        -0.1903
      2 C2          1.2442    1.9649    0.5140 C.ar      1 <0>        -0.0792
      3 C3          2.3651    1.3426   -0.0133 C.ar      1 <0>        -0.0967
      4 C4          2.2462    0.0664   -0.5307 C.ar      1 <0>         0.1915
      5 N1          1.0846   -0.5574   -0.5268 N.ar      1 <0>        -0.4883
      6 C5         -0.0022    0.0035   -0.0332 C.ar      1 <0>         0.0861
      7 C6          3.6964    2.0488   -0.0227 C.3       1 <0>         0.0829
      8 H1          3.5125    3.1200   -0.1058 H         1 <0>         0.0776
      9 C7          4.4467    1.6111   -1.2248 C.2       1 <0>        -0.2685
     10 C8          5.7423    1.2062   -1.3207 C.2       1 <0>         0.1103
     11 N2          6.1468    0.9152   -2.5601 N.2       1 <0>        -0.5561
     12 C9          5.3351    0.9868   -3.5919 C.2       1 <0>         0.2834
     13 S1          5.6823    0.6393   -5.2840 S.3       1 <0>        -0.7615
     14 S2          3.8829    1.4904   -2.9039 S.3       1 <0>         0.0323
     15 S3          6.7662    1.0669    0.1203 S.3       1 <0>        -0.0436
     16 C10         5.8761    2.0336    1.3811 C.3       1 <0>        -0.1576
     17 H2          6.1665    3.0839    1.4048 H         1 <0>         0.1150
     18 C11         4.3676    1.7919    1.2719 C.3       1 <0>        -0.1284
     19 H3          3.9359    2.5165    1.9623 H         1 <0>         0.0809
     20 C12         4.1651    0.4818    1.9630 C.2       1 <0>         0.4912
     21 O1          3.1440   -0.3696    1.7829 O.3       1 <0>        -0.6109
     22 N3          5.1822    0.3260    2.7818 N.2       1 <0>        -0.6898
     23 C13         6.1154    1.2887    2.7084 C.2       1 <0>         0.5349
     24 O2          6.9843    1.5216    3.5237 O.2       1 <0>        -0.5345
     25 H4         -0.8524    1.7296    0.9075 H         1 <0>         0.1191
     26 H5          1.3071    2.9618    0.9247 H         1 <0>         0.1194
     27 H6          3.1147   -0.4253   -0.9434 H         1 <0>         0.1414
     28 H7         -0.9360   -0.5389   -0.0466 H         1 <0>         0.1395
@<TRIPOS>BOND
     1    1    6 ar
     2    1    2 ar
     3    1   25 1
     4    2    3 ar
     5    2   26 1
     6    3    4 ar
     7    3    7 1
     8    4    5 ar
     9    4   27 1
    10    5    6 ar
    11    6   28 1
    12    7    8 1
    13    7   18 1
    14    7    9 1
    15    9   14 1
    16    9   10 2
    17   10   11 1
    18   10   15 1
    19   11   12 2
    20   12   13 1
    21   12   14 1
    22   15   16 1
    23   16   17 1
    24   16   23 1
    25   16   18 1
    26   18   19 1
    27   18   20 1
    28   20   21 1
    29   20   22 2
    30   22   23 1
    31   23   24 2
@<TRIPOS>MOLECULE
ZINC16928420
   39    42     0     0     0
SMALL
USER_CHARGES

@<TRIPOS>ATOM
      1 C1          0.0305    1.1664   -2.0944 C.ar      1 <0>        -0.1567
      2 C2          1.2223    1.8536   -2.2740 C.ar      1 <0>        -0.1107
      3 C3          2.4319    1.2064   -2.1459 C.ar      1 <0>        -0.1340
      4 C4          2.4646   -0.1489   -1.8338 C.ar      1 <0>         0.0889
      5 C5          1.2576   -0.8426   -1.6525 C.ar      1 <0>        -0.0860
      6 C6          0.0422   -0.1762   -1.7849 C.ar      1 <0>        -0.0650
      7 C7          1.6334   -2.2342   -1.3375 C.2       1 <0>        -0.1316
      8 C8          3.0004   -2.2778   -1.3512 C.2       1 <0>         0.0680
      9 N1          3.4936   -1.0486   -1.6438 N.pl3     1 <0>        -0.5873
     10 H1          4.4369   -0.8324   -1.7105 H         1 <0>         0.4136
     11 C9          0.7244   -3.3462   -1.0640 C.2       1 <0>        -0.0243
     12 C10         1.2246   -4.5822   -0.7872 C.2       1 <0>        -0.1583
     13 C11         0.5172   -5.8439   -0.4889 C.2       1 <0>         0.5173
     14 O1         -0.7025   -5.9062   -0.4593 O.2       1 <0>        -0.5607
     15 N2          1.2705   -6.8971   -0.2573 N.2       1 <0>        -0.6862
     16 C12         2.5924   -6.8436   -0.2866 C.2       1 <0>         0.4168
     17 S1          2.9226   -5.1354   -0.6905 S.3       1 <0>        -0.1839
     18 N3          3.4916   -7.8565   -0.0655 N.2       1 <0>        -0.5375
     19 C13         3.0456   -9.1786    0.0335 C.ar      1 <0>         0.0826
     20 C14         3.8015  -10.1138    0.7251 C.ar      1 <0>        -0.0848
     21 C15         3.3592  -11.4355    0.8262 C.ar      1 <0>        -0.1677
     22 C16         2.1564  -11.8138    0.2309 C.ar      1 <0>        -0.0670
     23 C17         1.3994  -10.8709   -0.4634 C.ar      1 <0>        -0.1625
     24 C18         1.8455   -9.5498   -0.5553 C.ar      1 <0>        -0.0956
     25 C19         0.1256  -11.2661   -1.0952 C.2       1 <0>         0.5285
     26 O2         -0.2665  -12.4213   -1.0101 O.co2     1 <0>        -0.7102
     27 O3         -0.5377  -10.4385   -1.7039 O.co2     1 <0>        -0.6956
     28 C20         4.1644  -12.4299    1.5617 C.2       1 <0>         0.5337
     29 O4          5.2193  -12.0974    2.0832 O.co2     1 <0>        -0.7111
     30 O5          3.7766  -13.5863    1.6497 O.co2     1 <0>        -0.7031
     31 H2         -0.9105    1.6871   -2.1934 H         1 <0>         0.1173
     32 H3          1.2017    2.9057   -2.5168 H         1 <0>         0.1170
     33 H4          3.3539    1.7507   -2.2881 H         1 <0>         0.1134
     34 H5         -0.8868   -0.7090   -1.6453 H         1 <0>         0.1245
     35 H6          3.5966   -3.1574   -1.1580 H         1 <0>         0.1892
     36 H7         -0.3437   -3.1874   -1.0814 H         1 <0>         0.1386
     37 H8          4.7332   -9.8202    1.1856 H         1 <0>         0.1108
     38 H9          1.8122  -12.8346    0.3070 H         1 <0>         0.1190
     39 H10         1.2576   -8.8178   -1.0891 H         1 <0>         0.1409
@<TRIPOS>BOND
     1    1    6 ar
     2    1    2 ar
     3    1   31 1
     4    2    3 ar
     5    2   32 1
     6    3    4 ar
     7    3   33 1
     8    4    9 1
     9    4    5 ar
    10    5    6 ar
    11    5    7 1
    12    6   34 1
    13    7    8 2
    14    7   11 1
    15    8    9 1
    16    8   35 1
    17    9   10 1
    18   11   12 2
    19   11   36 1
    20   12   17 1
    21   12   13 1
    22   13   14 2
    23   13   15 1
    24   15   16 2
    25   16   17 1
    26   16   18 1
    27   18   19 1
    28   19   24 ar
    29   19   20 ar
    30   20   21 ar
    31   20   37 1
    32   21   22 ar
    33   21   28 1
    34   22   23 ar
    35   22   38 1
    36   23   24 ar
    37   23   25 1
    38   24   39 1
    39   25   26 2
    40   25   27 1
    41   28   29 2
    42   28   30 1
@<TRIPOS>MOLECULE
ZINC10274244
   45    47     0     0     0
SMALL
USER_CHARGES
N-(2,4-dimethylphenyl)-4,8-dimethyl-2-oxo-1H-quinoline-6-sulfonamide
@<TRIPOS>ATOM
      1 C1          1.4109    5.4185    5.0424 C.3       1 <0>        -0.1159
      2 C2          0.5104    4.6271    4.1291 C.ar      1 <0>        -0.0932
      3 C3          0.3127    5.0432    2.8251 C.ar      1 <0>        -0.0961
      4 C4         -0.5125    4.3210    1.9859 C.ar      1 <0>        -0.1662
      5 C5         -1.1440    3.1749    2.4527 C.ar      1 <0>         0.1443
      6 C6         -0.9469    2.7626    3.7643 C.ar      1 <0>        -0.0962
      7 C7         -0.1165    3.4870    4.5970 C.ar      1 <0>        -0.0987
      8 C8         -1.6347    1.5235    4.2769 C.3       1 <0>        -0.1149
      9 N1         -1.9796    2.4422    1.6067 N.pl3     1 <0>        -1.0515
     10 S1         -1.6149    2.3064   -0.0029 S.o2      1 <0>         2.6935
     11 O1         -1.4413    3.6289   -0.4930 O.2       1 <0>        -0.9432
     12 O2         -2.5629    1.4060   -0.5596 O.2       1 <0>        -0.9471
     13 C9         -0.0437    1.5170   -0.1163 C.ar      1 <0>        -0.7004
     14 C10         1.1126    2.2854   -0.1341 C.ar      1 <0>         0.0260
     15 C11         2.3516    1.6895   -0.2284 C.ar      1 <0>        -0.1412
     16 C12         2.4470    0.3038   -0.3058 C.ar      1 <0>         0.2407
     17 C13         1.2726   -0.4718   -0.2874 C.ar      1 <0>        -0.1429
     18 C14         0.0256    0.1549   -0.1916 C.ar      1 <0>         0.0460
     19 C15         1.3834   -1.9293   -0.3693 C.2       1 <0>         0.0201
     20 C16         2.6188   -2.4810   -0.4589 C.2       1 <0>        -0.2228
     21 C17         3.7654   -1.6581   -0.4734 C.2       1 <0>         0.5390
     22 O3          4.8664   -2.1746   -0.5545 O.2       1 <0>        -0.5278
     23 N2          3.6735   -0.3187   -0.3995 N.am      1 <0>        -0.6315
     24 H1          4.4819    0.2172   -0.4121 H         1 <0>         0.4181
     25 C18         0.1517   -2.7975   -0.3528 C.3       1 <0>        -0.1318
     26 C19         3.5984    2.5358   -0.2467 C.3       1 <0>        -0.1186
     27 H2          0.8247    6.1745    5.5648 H         1 <0>         0.0720
     28 H3          1.8704    4.7487    5.7693 H         1 <0>         0.0664
     29 H4          2.1889    5.9045    4.4537 H         1 <0>         0.0676
     30 H5          0.8039    5.9342    2.4628 H         1 <0>         0.1302
     31 H6         -0.6670    4.6468    0.9679 H         1 <0>         0.1610
     32 H7          0.0401    3.1649    5.6158 H         1 <0>         0.1270
     33 H8         -0.9987    0.6559    4.1012 H         1 <0>         0.0734
     34 H9         -1.8207    1.6271    5.3459 H         1 <0>         0.0719
     35 H10        -2.5821    1.3913    3.7543 H         1 <0>         0.0641
     36 H11        -2.7736    2.0130    1.9620 H         1 <0>         0.4268
     37 H12         1.0402    3.3613   -0.0741 H         1 <0>         0.1500
     38 H13        -0.8784   -0.4357   -0.1767 H         1 <0>         0.1538
     39 H14         2.7258   -3.5540   -0.5197 H         1 <0>         0.1594
     40 H15        -0.1968   -2.9531   -1.3738 H         1 <0>         0.0923
     41 H16         0.3913   -3.7596    0.0999 H         1 <0>         0.0856
     42 H17        -0.6304   -2.3076    0.2273 H         1 <0>         0.0796
     43 H18         3.8476    2.7935   -1.2761 H         1 <0>         0.0815
     44 H19         3.4268    3.4479    0.3249 H         1 <0>         0.0841
     45 H20         4.4226    1.9780    0.1979 H         1 <0>         0.0661
@<TRIPOS>BOND
     1    1    2 1
     2    1   27 1
     3    1   28 1
     4    1   29 1
     5    2    7 ar
     6    2    3 ar
     7    3    4 ar
     8    3   30 1
     9    4    5 ar
    10    4   31 1
    11    5    6 ar
    12    5    9 1
    13    6    7 ar
    14    6    8 1
    15    7   32 1
    16    8   33 1
    17    8   34 1
    18    8   35 1
    19    9   10 1
    20    9   36 1
    21   10   11 2
    22   10   12 2
    23   10   13 1
    24   13   18 ar
    25   13   14 ar
    26   14   15 ar
    27   14   37 1
    28   15   16 ar
    29   15   26 1
    30   16   23 1
    31   16   17 ar
    32   17   18 ar
    33   17   19 1
    34   18   38 1
    35   19   20 2
    36   19   25 1
    37   20   21 1
    38   20   39 1
    39   21   22 2
    40   21   23 am
    41   23   24 1
    42   25   40 1
    43   25   41 1
    44   25   42 1
    45   26   43 1
    46   26   44 1
    47   26   45 1
@<TRIPOS>MOLECULE
ZINC00066763
   43    45     0     0     0
SMALL
USER_CHARGES
(4R,4aR)-2-amino-4-(2-methoxyphenyl)-4a,5,6,7-tetrahydro-4H-naphthalene-1,3,3-tricarbonitrile
@<TRIPOS>ATOM
      1 C1         -1.0667   -2.1239    0.1613 C.3       1 <0>         0.0227
      2 O1         -1.1630   -0.6989    0.1163 O.3       1 <0>        -0.3122
      3 C2          0.0029   -0.0033    0.0558 C.ar      1 <0>         0.1457
      4 C3          1.2150   -0.6785    0.0404 C.ar      1 <0>        -0.2056
      5 C4          2.3986    0.0308   -0.0207 C.ar      1 <0>        -0.0693
      6 C5          2.3763    1.4127   -0.0661 C.ar      1 <0>        -0.1496
      7 C6          1.1700    2.0878   -0.0514 C.ar      1 <0>        -0.0783
      8 C7         -0.0167    1.3829    0.0096 C.ar      1 <0>        -0.1334
      9 C8         -1.3316    2.1192    0.0199 C.3       1 <0>        -0.0110
     10 H1         -2.1421    1.3819   -0.0768 H         1 <0>         0.1315
     11 C9         -1.3740    3.1083   -1.1459 C.3       1 <0>        -0.0358
     12 H2         -0.6267    3.9061   -1.0233 H         1 <0>         0.0851
     13 C10        -0.9793    2.4654   -2.4535 C.3       1 <0>        -0.1144
     14 C11        -2.1952    2.1147   -3.3085 C.3       1 <0>        -0.1216
     15 C12        -2.9895    3.4020   -3.5706 C.3       1 <0>        -0.0914
     16 C13        -3.4516    3.9334   -2.2380 C.2       1 <0>        -0.1385
     17 C14        -2.7202    3.7698   -1.1533 C.2       1 <0>        -0.0535
     18 C15        -3.2349    4.2565    0.1536 C.2       1 <0>        -0.1441
     19 C16        -2.6474    3.8267    1.2988 C.2       1 <0>         0.2550
     20 C17        -1.4748    2.8937    1.3307 C.3       1 <0>         0.2096
     21 C18        -1.6520    1.9379    2.4360 C.1       1 <0>         0.1989
     22 N1         -1.7888    1.2002    3.2890 N.1       1 <0>        -0.3559
     23 C19        -0.2479    3.6727    1.5644 C.1       1 <0>         0.2060
     24 N2          0.6990    4.2739    1.7447 N.1       1 <0>        -0.3597
     25 N3         -3.1525    4.2695    2.4890 N.pl3     1 <0>        -0.8640
     26 C20        -4.3382    5.1680    0.2035 C.1       1 <0>         0.2676
     27 N4         -5.2134    5.8911    0.2431 N.1       1 <0>        -0.4332
     28 H3         -2.0762   -2.5583    0.2080 H         1 <0>         0.1048
     29 H4         -0.4964   -2.4249    1.0524 H         1 <0>         0.0570
     30 H5         -0.5534   -2.4854   -0.7419 H         1 <0>         0.0599
     31 H6          1.2329   -1.7578    0.0766 H         1 <0>         0.1320
     32 H7          3.3423   -0.4943   -0.0327 H         1 <0>         0.1281
     33 H8          3.3029    1.9655   -0.1139 H         1 <0>         0.1274
     34 H9          1.1553    3.1671   -0.0874 H         1 <0>         0.1307
     35 H10        -0.3451    3.1583   -3.0260 H         1 <0>         0.0710
     36 H11        -0.4217    1.5387   -2.2529 H         1 <0>         0.0773
     37 H12        -1.8601    1.6783   -4.2610 H         1 <0>         0.0680
     38 H13        -2.8228    1.3874   -2.7727 H         1 <0>         0.0691
     39 H14        -2.3422    4.1365   -4.0721 H         1 <0>         0.0781
     40 H15        -3.8533    3.1755   -4.2129 H         1 <0>         0.0741
     41 H16        -4.4134    4.4638   -2.1780 H         1 <0>         0.1111
     42 H17        -2.6992    3.9400    3.4355 H         1 <0>         0.4249
     43 H18        -4.0124    4.9554    2.5004 H         1 <0>         0.4357
@<TRIPOS>BOND
     1    1    2 1
     2    1   28 1
     3    1   29 1
     4    1   30 1
     5    2    3 1
     6    3    8 ar
     7    3    4 ar
     8    4    5 ar
     9    4   31 1
    10    5    6 ar
    11    5   32 1
    12    6    7 ar
    13    6   33 1
    14    7    8 ar
    15    7   34 1
    16    8    9 1
    17    9   10 1
    18    9   20 1
    19    9   11 1
    20   11   12 1
    21   11   17 1
    22   11   13 1
    23   13   14 1
    24   13   35 1
    25   13   36 1
    26   14   15 1
    27   14   37 1
    28   14   38 1
    29   15   16 1
    30   15   39 1
    31   15   40 1
    32   16   17 2
    33   16   41 1
    34   17   18 1
    35   18   19 2
    36   18   26 1
    37   19   20 1
    38   19   25 1
    39   20   21 1
    40   20   23 1
    41   21   22 3
    42   23   24 3
    43   25   42 1
    44   25   43 1
    45   26   27 3
@<TRIPOS>MOLECULE
ZINC39850550
   50    52     0     0     0
SMALL
USER_CHARGES

@<TRIPOS>ATOM
      1 C1          0.4875    1.7808    2.0183 C.3       1 <0>        -0.1531
      2 C2          0.6150    0.2986    2.3758 C.3       1 <0>         0.0538
      3 O1          0.6700   -0.4775    1.1772 O.3       1 <0>        -0.3163
      4 C3          0.7843   -1.8249    1.3190 C.ar      1 <0>         0.1193
      5 C4          0.8365   -2.3868    2.5863 C.ar      1 <0>        -0.1911
      6 C5          0.9525   -3.7551    2.7310 C.ar      1 <0>        -0.0771
      7 C6          1.0171   -4.5687    1.6077 C.ar      1 <0>         0.1025
      8 C7          0.9648   -4.0057    0.3395 C.ar      1 <0>        -0.1020
      9 C8          0.8430   -2.6377    0.1963 C.ar      1 <0>        -0.1343
     10 N1          1.1353   -5.9571    1.7538 N.am      1 <0>        -0.6678
     11 C9          1.8561   -6.4687    2.7712 C.2       1 <0>         0.5501
     12 O2          2.3324   -5.7311    3.6081 O.2       1 <0>        -0.5072
     13 C10         2.0702   -7.9572    2.8692 C.3       1 <0>        -0.0964
     14 C11         0.7854   -8.8251    3.0388 C.3       1 <0>        -0.1109
     15 C12         1.3002  -10.1725    3.5955 C.3       1 <0>        -0.1114
     16 C13         2.8433   -9.9838    3.7156 C.3       1 <0>        -0.0043
     17 C14         2.9225   -8.4614    4.0878 C.3       1 <0>        -0.0265
     18 C15         4.3519   -7.9167    4.0548 C.3       1 <0>        -0.1436
     19 C16         2.2369   -8.1779    5.4259 C.3       1 <0>        -0.1429
     20 C17         3.3424   -9.9526    2.2641 C.2       1 <0>         0.1407
     21 N2          4.0336  -10.8453    1.6619 N.2       1 <0>        -0.3205
     22 O3          4.4123  -10.6554    0.3108 O.3       1 <0>        -0.4148
     23 C18         2.8527   -8.6169    1.6924 C.3       1 <0>        -0.0986
     24 C19         3.5615  -10.9475    4.6624 C.3       1 <0>        -0.1233
     25 H1         -0.4237    1.9383    1.4414 H         1 <0>         0.0666
     26 H2          0.4456    2.3727    2.9326 H         1 <0>         0.0791
     27 H3          1.3499    2.0872    1.4263 H         1 <0>         0.0667
     28 H4          1.5262    0.1411    2.9528 H         1 <0>         0.0625
     29 H5         -0.2474   -0.0078    2.9678 H         1 <0>         0.0623
     30 H6          0.7866   -1.7538    3.4599 H         1 <0>         0.1310
     31 H7          0.9935   -4.1924    3.7176 H         1 <0>         0.1423
     32 H8          1.0153   -4.6379   -0.5346 H         1 <0>         0.1325
     33 H9          0.7979   -2.2000   -0.7900 H         1 <0>         0.1353
     34 H10         0.6985   -6.5502    1.1226 H         1 <0>         0.4102
     35 H11         0.1009   -8.3576    3.7467 H         1 <0>         0.0797
     36 H12         0.2962   -8.9731    2.0761 H         1 <0>         0.0751
     37 H13         0.8641  -10.3710    4.5745 H         1 <0>         0.0868
     38 H14         1.0690  -10.9828    2.9040 H         1 <0>         0.0743
     39 H15         4.3264   -6.8274    4.0858 H         1 <0>         0.0756
     40 H16         4.9037   -8.2919    4.9167 H         1 <0>         0.0625
     41 H17         4.8438   -8.2427    3.1384 H         1 <0>         0.0512
     42 H18         1.2718   -8.6839    5.4541 H         1 <0>         0.0619
     43 H19         2.8629   -8.5440    6.2397 H         1 <0>         0.0623
     44 H20         2.0875   -7.1040    5.5373 H         1 <0>         0.0726
     45 H21         4.9321  -11.3827   -0.0579 H         1 <0>         0.4044
     46 H22         2.1866   -8.7988    0.8490 H         1 <0>         0.0883
     47 H23         3.6861   -7.9834    1.3888 H         1 <0>         0.0908
     48 H24         3.4210  -11.9709    4.3145 H         1 <0>         0.0671
     49 H25         4.6258  -10.7129    4.6809 H         1 <0>         0.0648
     50 H26         3.1494  -10.8452    5.6663 H         1 <0>         0.0699
@<TRIPOS>BOND
     1    1    2 1
     2    1   25 1
     3    1   26 1
     4    1   27 1
     5    2    3 1
     6    2   28 1
     7    2   29 1
     8    3    4 1
     9    4    9 ar
    10    4    5 ar
    11    5    6 ar
    12    5   30 1
    13    6    7 ar
    14    6   31 1
    15    7    8 ar
    16    7   10 1
    17    8    9 ar
    18    8   32 1
    19    9   33 1
    20   10   11 am
    21   10   34 1
    22   11   12 2
    23   11   13 1
    24   13   17 1
    25   13   23 1
    26   13   14 1
    27   14   15 1
    28   14   35 1
    29   14   36 1
    30   15   16 1
    31   15   37 1
    32   15   38 1
    33   16   17 1
    34   16   20 1
    35   16   24 1
    36   17   18 1
    37   17   19 1
    38   18   39 1
    39   18   40 1
    40   18   41 1
    41   19   42 1
    42   19   43 1
    43   19   44 1
    44   20   21 2
    45   20   23 1
    46   21   22 1
    47   22   45 1
    48   23   46 1
    49   23   47 1
    50   24   48 1
    51   24   49 1
    52   24   50 1
@<TRIPOS>MOLECULE
ZINC44593221
   47    51     0     0     0
SMALL
USER_CHARGES

@<TRIPOS>ATOM
      1 C1         -0.0187    1.5258    0.0104 C.3       1 <0>        -0.1708
      2 C2          0.0021   -0.0041    0.0020 C.3       1 <0>         0.1690
      3 C3          0.7421   -0.5109    1.2415 C.3       1 <0>        -0.1739
      4 N1         -1.3723   -0.5112    0.0124 N.am      1 <0>        -0.5944
      5 C4         -1.9734   -1.3658   -1.0181 C.3       1 <0>         0.2638
      6 H1         -1.9687   -0.8524   -1.9796 H         1 <0>         0.1031
      7 C5         -3.3883   -1.6270   -0.5790 C.2       1 <0>        -0.1950
      8 C6         -4.5770   -2.2304   -0.8376 C.2       1 <0>         0.1054
      9 N2         -5.4112   -1.9115    0.1956 N.pl3     1 <0>        -0.3760
     10 H2         -6.3318   -2.2054    0.2790 H         1 <0>         0.4534
     11 N3         -4.7955   -1.1641    1.0411 N.2       1 <0>        -0.2015
     12 C7         -3.5578   -0.9422    0.6456 C.2       1 <0>        -0.0339
     13 C8         -2.2848   -0.2736    0.9701 C.2       1 <0>         0.6101
     14 O1         -2.0887    0.3999    1.9630 O.2       1 <0>        -0.5063
     15 C9         -4.9051   -3.0701   -2.0114 C.ar      1 <0>        -0.0288
     16 C10        -4.5248   -2.6645   -3.2908 C.ar      1 <0>        -0.0877
     17 C11        -4.8332   -3.4520   -4.3811 C.ar      1 <0>        -0.1161
     18 C12        -5.5183   -4.6412   -4.2074 C.ar      1 <0>        -0.1078
     19 C13        -5.8981   -5.0489   -2.9412 C.ar      1 <0>        -0.1143
     20 C14        -5.5906   -4.2730   -1.8423 C.ar      1 <0>        -0.1030
     21 C15        -1.2144   -2.6636   -1.1213 C.ar      1 <0>        -0.0730
     22 C16        -0.7666   -3.2914    0.0332 C.ar      1 <0>        -0.1209
     23 C17        -0.0772   -4.4687   -0.0399 C.ar      1 <0>        -0.0697
     24 C18         0.1792   -5.0457   -1.2853 C.ar      1 <0>        -0.1027
     25 C19         0.8677   -6.2631   -1.7210 C.2       1 <0>        -0.2060
     26 C20         0.7968   -6.2956   -3.0611 C.2       1 <0>         0.0534
     27 N4          0.1191   -5.1987   -3.5192 N.pl3     1 <0>        -0.5956
     28 H3         -0.0589   -5.0033   -4.4525 H         1 <0>         0.4155
     29 C21        -0.2724   -4.4136   -2.4580 C.ar      1 <0>         0.0968
     30 C22        -0.9770   -3.2180   -2.3597 C.ar      1 <0>        -0.1083
     31 H4          1.0039    1.9031    0.0027 H         1 <0>         0.0723
     32 H5         -0.5459    1.8868   -0.8726 H         1 <0>         0.0584
     33 H6         -0.5289    1.8773    0.9072 H         1 <0>         0.0734
     34 H7          0.5123   -0.3556   -0.8948 H         1 <0>         0.0952
     35 H8          0.2319   -0.1594    2.1383 H         1 <0>         0.0726
     36 H9          0.7568   -1.6008    1.2356 H         1 <0>         0.0636
     37 H10         1.7647   -0.1336    1.2338 H         1 <0>         0.0711
     38 H11        -3.9906   -1.7360   -3.4276 H         1 <0>         0.1264
     39 H12        -4.5393   -3.1391   -5.3721 H         1 <0>         0.1281
     40 H13        -5.7579   -5.2538   -5.0640 H         1 <0>         0.1257
     41 H14        -6.4331   -5.9781   -2.8120 H         1 <0>         0.1277
     42 H15        -5.8837   -4.5945   -0.8538 H         1 <0>         0.1228
     43 H16        -0.9643   -2.8453    0.9967 H         1 <0>         0.1183
     44 H17         0.2684   -4.9512    0.8624 H         1 <0>         0.1223
     45 H18         1.3428   -6.9951   -1.0848 H         1 <0>         0.1463
     46 H19         1.2129   -7.0726   -3.6853 H         1 <0>         0.1706
     47 H20        -1.3334   -2.7243   -3.2517 H         1 <0>         0.1206
@<TRIPOS>BOND
     1    1    2 1
     2    1   31 1
     3    1   32 1
     4    1   33 1
     5    2    3 1
     6    2    4 1
     7    2   34 1
     8    3   35 1
     9    3   36 1
    10    3   37 1
    11    4   13 am
    12    4    5 1
    13    5    6 1
    14    5    7 1
    15    5   21 1
    16    7   12 1
    17    7    8 2
    18    8    9 1
    19    8   15 1
    20    9   10 1
    21    9   11 1
    22   11   12 2
    23   12   13 1
    24   13   14 2
    25   15   20 ar
    26   15   16 ar
    27   16   17 ar
    28   16   38 1
    29   17   18 ar
    30   17   39 1
    31   18   19 ar
    32   18   40 1
    33   19   20 ar
    34   19   41 1
    35   20   42 1
    36   21   30 ar
    37   21   22 ar
    38   22   23 ar
    39   22   43 1
    40   23   24 ar
    41   23   44 1
    42   24   29 ar
    43   24   25 1
    44   25   26 2
    45   25   45 1
    46   26   27 1
    47   26   46 1
    48   27   28 1
    49   27   29 1
    50   29   30 ar
    51   30   47 1
@<TRIPOS>MOLECULE
ZINC13132487
   40    43     0     0     0
SMALL
USER_CHARGES

@<TRIPOS>ATOM
      1 C1          0.5028    1.4690   -0.1210 C.3       1 <0>        -0.1143
      2 C2          0.4003   -0.0345   -0.1038 C.ar      1 <0>        -0.0629
      3 C3          0.2302   -0.7271   -1.2940 C.ar      1 <0>        -0.1244
      4 C4          0.1356   -2.0900   -1.2997 C.ar      1 <0>        -0.0576
      5 C5          0.2103   -2.7990   -0.0963 C.ar      1 <0>         0.0492
      6 C6          0.3827   -2.0968    1.1097 C.ar      1 <0>         0.0597
      7 C7          0.4820   -0.7128    1.0945 C.ar      1 <0>        -0.1167
      8 N1          0.4193   -3.0499    2.1103 N.pl3     1 <0>        -0.5986
      9 H1          0.5280   -2.8839    3.0598 H         1 <0>         0.4224
     10 C8          0.2730   -4.2730    1.5099 C.2       1 <0>         0.3407
     11 N2          0.1506   -4.1175    0.2120 N.2       1 <0>        -0.4744
     12 C9          0.2556   -5.5673    2.2146 C.2       1 <0>        -0.0647
     13 C10         0.1017   -6.7357    1.5040 C.2       1 <0>         0.1103
     14 C11         0.2330   -8.0270    2.1811 C.2       1 <0>        -0.2462
     15 C12         0.8149   -8.2624    3.4152 C.2       1 <0>         0.1073
     16 N3          0.7272   -9.5783    3.6661 N.pl3     1 <0>        -0.4546
     17 H2          1.0571  -10.0173    4.4657 H         1 <0>         0.4489
     18 N4          0.0881  -10.2201    2.6019 N.2       1 <0>        -0.2711
     19 C13        -0.2318   -9.3304    1.6900 C.2       1 <0>         0.1622
     20 C14        -0.9266   -9.5928    0.4073 C.ar      1 <0>        -0.0381
     21 C15        -1.8140   -8.6515   -0.1127 C.ar      1 <0>        -0.0620
     22 C16        -2.4584   -8.9001   -1.3069 C.ar      1 <0>        -0.1496
     23 C17        -2.2252  -10.0834   -1.9892 C.ar      1 <0>         0.1153
     24 C18        -1.3441  -11.0218   -1.4764 C.ar      1 <0>        -0.1537
     25 C19        -0.6904  -10.7792   -0.2860 C.ar      1 <0>        -0.0548
     26 F1         -2.8591  -10.3230   -3.1579 F         1 <0>        -0.1346
     27 C20         0.3988   -5.6091    3.6389 C.1       1 <0>         0.2570
     28 N5          0.5124   -5.6423    4.7687 N.1       1 <0>        -0.4144
     29 H3          1.5469    1.7607   -0.2347 H         1 <0>         0.0733
     30 H4         -0.0775    1.8631   -0.9553 H         1 <0>         0.0709
     31 H5          0.1132    1.8705    0.8144 H         1 <0>         0.0666
     32 H6          0.1717   -0.1833   -2.2252 H         1 <0>         0.1315
     33 H7          0.0029   -2.6190   -2.2319 H         1 <0>         0.1333
     34 H8          0.6189   -0.1688    2.0174 H         1 <0>         0.1233
     35 H9         -0.1159   -6.7000    0.4467 H         1 <0>         0.1679
     36 H10         1.2605   -7.5199    4.0607 H         1 <0>         0.1870
     37 H11        -1.9970   -7.7293    0.4188 H         1 <0>         0.1403
     38 H12        -3.1460   -8.1716   -1.7104 H         1 <0>         0.1446
     39 H13        -1.1654  -11.9426   -2.0117 H         1 <0>         0.1421
     40 H14        -0.0004  -11.5093    0.1107 H         1 <0>         0.1392
@<TRIPOS>BOND
     1    1    2 1
     2    1   29 1
     3    1   30 1
     4    1   31 1
     5    2    7 ar
     6    2    3 ar
     7    3    4 ar
     8    3   32 1
     9    4    5 ar
    10    4   33 1
    11    5   11 1
    12    5    6 ar
    13    6    7 ar
    14    6    8 1
    15    7   34 1
    16    8    9 1
    17    8   10 1
    18   10   11 2
    19   10   12 1
    20   12   13 2
    21   12   27 1
    22   13   14 1
    23   13   35 1
    24   14   19 1
    25   14   15 2
    26   15   16 1
    27   15   36 1
    28   16   17 1
    29   16   18 1
    30   18   19 2
    31   19   20 1
    32   20   25 ar
    33   20   21 ar
    34   21   22 ar
    35   21   37 1
    36   22   23 ar
    37   22   38 1
    38   23   24 ar
    39   23   26 1
    40   24   25 ar
    41   24   39 1
    42   25   40 1
    43   27   28 3
@<TRIPOS>MOLECULE
ZINC18198539
   44    47     0     0     0
SMALL
USER_CHARGES
5-[5-[(Z)-2-cyano-2-(5-methyl-1H-benzimidazol-2-yl)vinyl]-2-furyl]benzene-1,3-dicarboxylic acid
@<TRIPOS>ATOM
      1 C1          2.0875    0.6402    2.9961 C.3       1 <0>        -0.1124
      2 C2          3.5081    1.0598    2.7190 C.ar      1 <0>        -0.0892
      3 C3          4.5530    0.2109    3.0554 C.ar      1 <0>        -0.0905
      4 C4          5.8596    0.5789    2.8100 C.ar      1 <0>        -0.1193
      5 C5          6.1299    1.8061    2.2218 C.ar      1 <0>         0.0524
      6 C6          5.0712    2.6667    1.8807 C.ar      1 <0>         0.0636
      7 C7          3.7542    2.2722    2.1396 C.ar      1 <0>        -0.0481
      8 N1          5.6183    3.7803    1.3360 N.2       1 <0>        -0.4426
      9 C8          6.9264    3.6620    1.3101 C.2       1 <0>         0.3193
     10 N2          7.2922    2.4567    1.8517 N.pl3     1 <0>        -0.6044
     11 H1          8.2250    2.1127    1.9589 H         1 <0>         0.4206
     12 C9          7.8587    4.6732    0.7849 C.2       1 <0>        -0.0561
     13 C10         7.3714    5.7856    0.1224 C.2       1 <0>         0.0885
     14 C11         6.0080    5.8599   -0.2194 C.2       1 <0>        -0.0573
     15 C12         5.2323    7.0079   -0.2220 C.2       1 <0>        -0.1211
     16 C13         3.9499    6.6272   -0.6208 C.2       1 <0>        -0.2388
     17 C14         3.9845    5.2691   -0.8470 C.2       1 <0>         0.1401
     18 O1          5.2284    4.8239   -0.5951 O.3       1 <0>        -0.1123
     19 C15         2.8453    4.4398   -1.2864 C.ar      1 <0>        -0.0942
     20 C16         1.6097    5.0334   -1.5482 C.ar      1 <0>        -0.0466
     21 C17         0.5336    4.2494   -1.9629 C.ar      1 <0>        -0.1430
     22 C18         0.6934    2.8730   -2.1211 C.ar      1 <0>        -0.0056
     23 C19         1.9266    2.2785   -1.8544 C.ar      1 <0>        -0.1433
     24 C20         3.0033    3.0617   -1.4397 C.ar      1 <0>        -0.0436
     25 C21         2.0939    0.8194   -2.0173 C.2       1 <0>         0.4979
     26 O2          3.1906    0.3151   -1.8825 O.co2     1 <0>        -0.6404
     27 C22        -0.7746    4.8779   -2.2406 C.2       1 <0>         0.4984
     28 O3         -0.9125    6.0774   -2.1077 O.co2     1 <0>        -0.6442
     29 C23         9.2701    4.5053    0.9599 C.1       1 <0>         0.2665
     30 N3         10.3897    4.3721    1.0987 N.1       1 <0>        -0.4269
     31 H2          1.7215    0.0295    2.1707 H         1 <0>         0.0785
     32 H3          2.0530    0.0616    3.9193 H         1 <0>         0.0609
     33 H4          1.4605    1.5258    3.0987 H         1 <0>         0.0665
     34 H5          4.3418   -0.7441    3.5132 H         1 <0>         0.1266
     35 H6          6.6689   -0.0860    3.0738 H         1 <0>         0.1173
     36 H7          2.9334    2.9249    1.8815 H         1 <0>         0.1299
     37 H8          8.0370    6.5969   -0.1326 H         1 <0>         0.1614
     38 H9          5.5572    8.0051    0.0357 H         1 <0>         0.1505
     39 H10         3.0927    7.2750   -0.7308 H         1 <0>         0.1541
     40 H11         1.4870    6.0999   -1.4301 H         1 <0>         0.1276
     41 H12        -0.1391    2.2667   -2.4462 H         1 <0>         0.1430
     42 H13         3.9592    2.6018   -1.2369 H         1 <0>         0.1231
     43 O4          1.0301    0.0486   -2.3152 O.co2     1 <0>        -0.7547
     44 O5         -1.8141    4.1207   -2.6412 O.co2     1 <0>        -0.7521
@<TRIPOS>BOND
     1    1    2 1
     2    1   31 1
     3    1   32 1
     4    1   33 1
     5    2    7 ar
     6    2    3 ar
     7    3    4 ar
     8    3   34 1
     9    4    5 ar
    10    4   35 1
    11    5   10 1
    12    5    6 ar
    13    6    7 ar
    14    6    8 1
    15    7   36 1
    16    8    9 2
    17    9   10 1
    18    9   12 1
    19   10   11 1
    20   12   13 2
    21   12   29 1
    22   13   14 1
    23   13   37 1
    24   14   18 1
    25   14   15 2
    26   15   16 1
    27   15   38 1
    28   16   17 2
    29   16   39 1
    30   17   18 1
    31   17   19 1
    32   19   24 ar
    33   19   20 ar
    34   20   21 ar
    35   20   40 1
    36   21   22 ar
    37   21   27 1
    38   22   23 ar
    39   22   41 1
    40   23   24 ar
    41   23   25 1
    42   24   42 1
    43   25   26 2
    44   25   43 1
    45   27   28 2
    46   27   44 1
    47   29   30 3
@<TRIPOS>MOLECULE
ZINC33253931
   52    53     0     0     0
SMALL
USER_CHARGES

@<TRIPOS>ATOM
      1 C1         -0.2795    1.2029    0.2400 C.3       1 <0>        -0.1492
      2 C2         -0.2448   -0.3192    0.0886 C.3       1 <0>        -0.1451
      3 C3          0.5765   -0.6901   -1.1479 C.3       1 <0>         0.1427
      4 N1          0.6097   -2.1475   -1.2929 N.pl3     1 <0>        -0.6687
      5 C4         -0.4233   -2.8294   -2.0767 C.3       1 <0>         0.1479
      6 C5          0.0269   -2.9302   -3.5355 C.3       1 <0>        -0.1523
      7 C6         -1.0519   -3.6423   -4.3541 C.3       1 <0>        -0.1506
      8 C7          1.6226   -2.8845   -0.6860 C.ar      1 <0>         0.1410
      9 C8          1.4489   -3.3707    0.6051 C.ar      1 <0>        -0.1151
     10 C9          2.4477   -4.1001    1.2098 C.ar      1 <0>        -0.0946
     11 C10         3.6418   -4.3539    0.5260 C.ar      1 <0>        -0.0993
     12 C11         3.8185   -3.8652   -0.7738 C.ar      1 <0>        -0.1338
     13 C12         2.8107   -3.1393   -1.3779 C.ar      1 <0>         0.1353
     14 N2          2.9810   -2.6535   -2.6802 N.pl3     1 <0>        -1.0411
     15 S1          3.8240   -3.5446   -3.7927 S.o2      1 <0>         2.6940
     16 O1          3.3449   -4.8786   -3.6917 O.2       1 <0>        -0.9394
     17 O2          3.7887   -2.8127   -5.0102 O.2       1 <0>        -0.9557
     18 C13         5.5066   -3.5729   -3.2707 C.ar      1 <0>        -0.6579
     19 C14         6.1077   -4.7732   -2.9413 C.ar      1 <0>        -0.0374
     20 C15         7.4299   -4.7951   -2.5316 C.ar      1 <0>         0.1032
     21 C16         8.1487   -3.6142   -2.4523 C.ar      1 <0>        -0.0923
     22 C17         7.5457   -2.4155   -2.7820 C.ar      1 <0>        -0.1141
     23 C18         6.2267   -2.3954   -3.1961 C.ar      1 <0>         0.0017
     24 C19         5.5719   -1.0880   -3.5610 C.3       1 <0>        -0.1660
     25 F1          8.0183   -5.9677   -2.2090 F         1 <0>        -0.1275
     26 C20         4.7100   -5.1326    1.1723 C.2       1 <0>         0.5185
     27 O3          4.5545   -5.5588    2.3086 O.co2     1 <0>        -0.6851
     28 O4          5.7537   -5.3539    0.5733 O.co2     1 <0>        -0.6790
     29 H1          0.7370    1.5800    0.3525 H         1 <0>         0.0529
     30 H2         -0.7355    1.6458   -0.6454 H         1 <0>         0.0507
     31 H3         -0.8646    1.4671    1.1209 H         1 <0>         0.0515
     32 H4          0.2112   -0.7622    0.9740 H         1 <0>         0.0650
     33 H5         -1.2613   -0.6964   -0.0239 H         1 <0>         0.0590
     34 H6          0.1205   -0.2472   -2.0333 H         1 <0>         0.0617
     35 H7          1.5930   -0.3130   -1.0354 H         1 <0>         0.0607
     36 H8         -0.5824   -3.8303   -1.6755 H         1 <0>         0.0646
     37 H9         -1.3535   -2.2638   -2.0218 H         1 <0>         0.0623
     38 H10         0.1860   -1.9293   -3.9367 H         1 <0>         0.0596
     39 H11         0.9571   -3.4958   -3.5904 H         1 <0>         0.0592
     40 H12        -1.9821   -3.0768   -4.2992 H         1 <0>         0.0525
     41 H13        -0.7311   -3.7142   -5.3934 H         1 <0>         0.0533
     42 H14        -1.2109   -4.6432   -3.9529 H         1 <0>         0.0559
     43 H15         0.5283   -3.1754    1.1349 H         1 <0>         0.1197
     44 H16         2.3096   -4.4763    2.2127 H         1 <0>         0.1300
     45 H17         4.7388   -4.0591   -1.3046 H         1 <0>         0.1346
     46 H18         2.6053   -1.7950   -2.9307 H         1 <0>         0.4210
     47 H19         5.5460   -5.6935   -3.0032 H         1 <0>         0.1552
     48 H20         9.1801   -3.6301   -2.1324 H         1 <0>         0.1424
     49 H21         8.1061   -1.4943   -2.7199 H         1 <0>         0.1394
     50 H22         5.0188   -0.7067   -2.7027 H         1 <0>         0.0859
     51 H23         6.3365   -0.3670   -3.8502 H         1 <0>         0.0852
     52 H24         4.8868   -1.2449   -4.3942 H         1 <0>         0.0978
@<TRIPOS>BOND
     1    1    2 1
     2    1   29 1
     3    1   30 1
     4    1   31 1
     5    2    3 1
     6    2   32 1
     7    2   33 1
     8    3    4 1
     9    3   34 1
    10    3   35 1
    11    4    5 1
    12    4    8 1
    13    5    6 1
    14    5   36 1
    15    5   37 1
    16    6    7 1
    17    6   38 1
    18    6   39 1
    19    7   40 1
    20    7   41 1
    21    7   42 1
    22    8   13 ar
    23    8    9 ar
    24    9   10 ar
    25    9   43 1
    26   10   11 ar
    27   10   44 1
    28   11   12 ar
    29   11   26 1
    30   12   13 ar
    31   12   45 1
    32   13   14 1
    33   14   15 1
    34   14   46 1
    35   15   16 2
    36   15   17 2
    37   15   18 1
    38   18   23 ar
    39   18   19 ar
    40   19   20 ar
    41   19   47 1
    42   20   21 ar
    43   20   25 1
    44   21   22 ar
    45   21   48 1
    46   22   23 ar
    47   22   49 1
    48   23   24 1
    49   24   50 1
    50   24   51 1
    51   24   52 1
    52   26   27 2
    53   26   28 1
@<TRIPOS>MOLECULE
ZINC13213283
   39    42     0     0     0
SMALL
USER_CHARGES

@<TRIPOS>ATOM
      1 C1         -0.4611    1.3707   -0.3770 C.ar      1 <0>        -0.1163
      2 C2          0.6256    2.1888   -0.1451 C.ar      1 <0>        -0.1163
      3 C3          1.8790    1.6283    0.1143 C.ar      1 <0>        -0.1111
      4 C4          2.0258    0.2399    0.1375 C.ar      1 <0>        -0.1176
      5 C5          0.9273   -0.5721   -0.0970 C.ar      1 <0>         0.1619
      6 C6         -0.3154   -0.0036   -0.3541 C.ar      1 <0>        -0.1636
      7 N1          1.0688   -1.9628   -0.0754 N.am      1 <0>        -0.5505
      8 C7          0.0023   -2.9435   -0.3101 C.3       1 <0>         0.3031
      9 H1         -0.7835   -2.8288    0.4365 H         1 <0>         0.0866
     10 C8          0.6469   -4.3039   -0.1815 C.2       1 <0>        -0.5162
     11 C9          1.9532   -4.0918    0.0993 C.2       1 <0>         0.2846
     12 C10         2.2079   -2.6394    0.1584 C.2       1 <0>         0.5029
     13 O1          3.2872   -2.1296    0.3872 O.2       1 <0>        -0.4898
     14 O2          2.8811   -5.0590    0.2912 O.3       1 <0>        -0.6411
     15 C11        -0.0162   -5.6046   -0.3317 C.2       1 <0>         0.5468
     16 O3          0.2900   -6.3420   -1.2524 O.2       1 <0>        -0.4568
     17 C12        -1.0455   -6.0163    0.6247 C.2       1 <0>        -0.2084
     18 C13        -1.7447   -7.2156    0.6970 C.2       1 <0>        -0.1071
     19 C14        -2.6588   -7.3116    1.7157 C.2       1 <0>        -0.1622
     20 C15        -2.8168   -6.2595    2.5625 C.2       1 <0>        -0.2036
     21 S1         -1.7230   -5.1131    2.0043 S.3       1 <0>         0.2807
     22 Cl1        -3.8965   -6.1330    3.9160 Cl        1 <0>        -0.0006
     23 C16        -0.5684   -2.7675   -1.6937 C.2       1 <0>        -0.1068
     24 C17        -1.8626   -2.8074   -2.0947 C.2       1 <0>        -0.1813
     25 C18        -2.1563   -2.6158   -3.4318 C.2       1 <0>        -0.1482
     26 C19        -1.1414   -2.3938   -4.3024 C.2       1 <0>        -0.2075
     27 S2          0.2840   -2.4447   -3.2288 S.3       1 <0>         0.0768
     28 C20         3.0432    2.5004    0.3623 C.2       1 <0>         0.5225
     29 O4          2.9121    3.7160    0.3410 O.co2     1 <0>        -0.6973
     30 O5          4.1391    2.0074    0.5890 O.co2     1 <0>        -0.6803
     31 H2         -1.4300    1.8058   -0.5729 H         1 <0>         0.1122
     32 H3          0.5075    3.2621   -0.1643 H         1 <0>         0.1211
     33 H4          2.9920   -0.1996    0.3370 H         1 <0>         0.1575
     34 H5         -1.1701   -0.6383   -0.5361 H         1 <0>         0.1150
     35 H6         -1.5791   -8.0203   -0.0040 H         1 <0>         0.1500
     36 H7         -3.2449   -8.2098    1.8428 H         1 <0>         0.1348
     37 H8         -2.6525   -2.9865   -1.3803 H         1 <0>         0.1271
     38 H9         -3.1791   -2.6430   -3.7776 H         1 <0>         0.1228
     39 H10        -1.1844   -2.2257   -5.3684 H         1 <0>         0.1762
@<TRIPOS>BOND
     1    1    6 ar
     2    1    2 ar
     3    1   31 1
     4    2    3 ar
     5    2   32 1
     6    3    4 ar
     7    3   28 1
     8    4    5 ar
     9    4   33 1
    10    5    6 ar
    11    5    7 1
    12    6   34 1
    13    7   12 am
    14    7    8 1
    15    8    9 1
    16    8   10 1
    17    8   23 1
    18   10   11 2
    19   10   15 1
    20   11   12 1
    21   11   14 1
    22   12   13 2
    23   15   16 2
    24   15   17 1
    25   17   21 1
    26   17   18 2
    27   18   19 1
    28   18   35 1
    29   19   20 2
    30   19   36 1
    31   20   21 1
    32   20   22 1
    33   23   27 1
    34   23   24 2
    35   24   25 1
    36   24   37 1
    37   25   26 2
    38   25   38 1
    39   26   27 1
    40   26   39 1
    41   28   29 2
    42   28   30 1
@<TRIPOS>MOLECULE
ZINC16911191
   49    51     0     0     0
SMALL
USER_CHARGES

@<TRIPOS>ATOM
      1 C1         -2.4859    5.8038   -1.1386 C.3       1 <0>        -0.1492
      2 C2         -1.4524    4.9863   -0.3612 C.3       1 <0>        -0.1012
      3 C3         -2.0676    3.6480    0.0530 C.3       1 <0>         0.0140
      4 H1         -2.9875    3.8278    0.6095 H         1 <0>         0.0657
      5 C4         -1.0937    2.8950    0.9222 C.2       1 <0>         0.4830
      6 O1         -0.7822    3.3385    2.0144 O.co2     1 <0>        -0.6994
      7 O2         -0.6173    1.8423    0.5333 O.co2     1 <0>        -0.6725
      8 O3         -2.3598    2.8766   -1.1138 O.3       1 <0>        -0.2870
      9 C5         -3.3780    1.9842   -1.0234 C.ar      1 <0>         0.1862
     10 C6         -4.0141    1.7742    0.1897 C.ar      1 <0>        -0.2195
     11 C7         -5.0507    0.8654    0.2807 C.ar      1 <0>        -0.0707
     12 C8         -5.4634    0.1565   -0.8362 C.ar      1 <0>        -0.1835
     13 C9         -4.8439    0.3504   -2.0510 C.ar      1 <0>        -0.0066
     14 C10        -3.7964    1.2729   -2.1602 C.ar      1 <0>        -0.1096
     15 C11        -3.1352    1.4904   -3.4523 C.2       1 <0>         0.0340
     16 C12        -3.8750    1.5780   -4.5871 C.2       1 <0>        -0.2163
     17 C13        -5.3447    1.6517   -4.7585 C.2       1 <0>         0.5305
     18 O4         -6.1057    1.6402   -3.8041 O.2       1 <0>        -0.5241
     19 N1         -5.7842    1.7308   -5.9951 N.2       1 <0>        -0.7153
     20 C14        -4.9701    1.7447   -7.0386 C.2       1 <0>         0.4543
     21 S1         -3.3492    1.6446   -6.2952 S.3       1 <0>        -0.1499
     22 N2         -5.2929    1.8224   -8.3687 N.2       1 <0>        -0.5835
     23 C15        -6.5994    2.1373   -8.7537 C.ar      1 <0>         0.1694
     24 C16        -7.4505    2.7829   -7.8654 C.ar      1 <0>        -0.1580
     25 C17        -8.7402    3.0930   -8.2491 C.ar      1 <0>        -0.1076
     26 C18        -9.1850    2.7616   -9.5160 C.ar      1 <0>        -0.1517
     27 C19        -8.3406    2.1190  -10.4025 C.ar      1 <0>        -0.1088
     28 C20        -7.0477    1.8107  -10.0270 C.ar      1 <0>        -0.1187
     29 C21        -6.1261    1.1159  -10.9960 C.3       1 <0>        -0.0892
     30 C22       -10.5934    3.1011   -9.9310 C.3       1 <0>        -0.0956
     31 H2         -2.0476    6.7572   -1.4337 H         1 <0>         0.0482
     32 H3         -2.7902    5.2529   -2.0285 H         1 <0>         0.0591
     33 H4         -3.3562    5.9838   -0.5075 H         1 <0>         0.0476
     34 H5         -0.5821    4.8063   -0.9923 H         1 <0>         0.0655
     35 H6         -1.1481    5.5372    0.5288 H         1 <0>         0.0802
     36 H7         -3.6987    2.3217    1.0656 H         1 <0>         0.1247
     37 H8         -5.5425    0.7061    1.2290 H         1 <0>         0.1131
     38 H9         -6.2745   -0.5518   -0.7537 H         1 <0>         0.1132
     39 H10        -5.1685   -0.2049   -2.9186 H         1 <0>         0.1207
     40 H11        -2.0600    1.5807   -3.5003 H         1 <0>         0.1313
     41 H12        -7.1038    3.0417   -6.8759 H         1 <0>         0.1413
     42 H13        -9.4024    3.5945   -7.5589 H         1 <0>         0.1032
     43 H14        -8.6913    1.8613  -11.3910 H         1 <0>         0.1054
     44 H15        -6.2261    0.0365  -10.8823 H         1 <0>         0.0515
     45 H16        -6.3893    1.3998  -12.0150 H         1 <0>         0.0435
     46 H17        -5.0963    1.4089  -10.7917 H         1 <0>         0.0727
     47 H18       -10.6100    4.0931  -10.3825 H         1 <0>         0.0537
     48 H19       -10.9460    2.3665  -10.6549 H         1 <0>         0.0524
     49 H20       -11.2429    3.0894   -9.0557 H         1 <0>         0.0540
@<TRIPOS>BOND
     1    1    2 1
     2    1   31 1
     3    1   32 1
     4    1   33 1
     5    2    3 1
     6    2   34 1
     7    2   35 1
     8    3    4 1
     9    3    5 1
    10    3    8 1
    11    5    6 2
    12    5    7 1
    13    8    9 1
    14    9   14 ar
    15    9   10 ar
    16   10   11 ar
    17   10   36 1
    18   11   12 ar
    19   11   37 1
    20   12   13 ar
    21   12   38 1
    22   13   14 ar
    23   13   39 1
    24   14   15 1
    25   15   16 2
    26   15   40 1
    27   16   21 1
    28   16   17 1
    29   17   18 2
    30   17   19 1
    31   19   20 2
    32   20   21 1
    33   20   22 1
    34   22   23 1
    35   23   28 ar
    36   23   24 ar
    37   24   25 ar
    38   24   41 1
    39   25   26 ar
    40   25   42 1
    41   26   27 ar
    42   26   30 1
    43   27   28 ar
    44   27   43 1
    45   28   29 1
    46   29   44 1
    47   29   45 1
    48   29   46 1
    49   30   47 1
    50   30   48 1
    51   30   49 1
@<TRIPOS>MOLECULE
ZINC13351546
   42    44     0     0     0
SMALL
USER_CHARGES

@<TRIPOS>ATOM
      1 C1         -0.0122    1.3810    0.8295 C.3       1 <0>         0.1246
      2 N1         -0.1003    0.1613    0.0226 N.pl3     1 <0>        -0.6804
      3 C2          1.0436   -0.2655   -0.7870 C.3       1 <0>         0.1186
      4 C3         -1.2724   -0.5929    0.0253 C.ar      1 <0>         0.2291
      5 C4         -2.2708   -0.3269   -0.9069 C.ar      1 <0>        -0.1273
      6 C5         -3.4298   -1.0698   -0.9079 C.ar      1 <0>        -0.0526
      7 C6         -3.6031   -2.0934    0.0299 C.ar      1 <0>        -0.0391
      8 C7         -2.5972   -2.3576    0.9651 C.ar      1 <0>        -0.0402
      9 C8         -1.4386   -1.6133    0.9561 C.ar      1 <0>        -0.0655
     10 N2         -0.3708   -1.8960    1.9415 N.pl3     1 <0>         0.0433
     11 O1         -0.5144   -2.7827    2.7508 O.2       1 <0>        -0.1849
     12 O2          0.6449   -1.2403    1.9370 O.3       1 <0>        -0.1453
     13 C9         -4.8408   -2.8898    0.0327 C.2       1 <0>        -0.1034
     14 C10        -5.4794   -3.1451   -1.1243 C.2       1 <0>         0.0506
     15 C11        -6.7968   -3.8008   -1.1084 C.ar      1 <0>         0.3580
     16 N3         -7.3993   -4.0444   -2.2612 N.ar      1 <0>        -0.5697
     17 C12        -8.5985   -4.6393   -2.2862 C.ar      1 <0>         0.1657
     18 C13        -9.2618   -4.9112   -3.4915 C.ar      1 <0>        -0.0954
     19 C14       -10.5027   -5.5300   -3.4600 C.ar      1 <0>        -0.1095
     20 C15       -11.0932   -5.8829   -2.2349 C.ar      1 <0>        -0.1267
     21 C16       -10.4615   -5.6250   -1.0571 C.ar      1 <0>        -0.0651
     22 C17        -9.2078   -5.0017   -1.0587 C.ar      1 <0>        -0.2168
     23 C18        -8.5158   -4.7162    0.1456 C.ar      1 <0>         0.4727
     24 O3         -9.0509   -5.0404    1.3451 O.3       1 <0>        -0.6829
     25 N4         -7.3346   -4.1313    0.0685 N.ar      1 <0>        -0.6355
     26 C19       -11.2092   -5.8200   -4.7245 C.2       1 <0>         0.5252
     27 O4        -10.7000   -5.5147   -5.7933 O.co2     1 <0>        -0.6916
     28 O5        -12.3033   -6.3654   -4.7023 O.co2     1 <0>        -0.6946
     29 Cl1        -4.7491   -2.7009   -2.6352 Cl        1 <0>        -0.0580
     30 H1          0.9719    1.8316    0.7005 H         1 <0>         0.0701
     31 H2         -0.7794    2.0854    0.5081 H         1 <0>         0.0394
     32 H3         -0.1636    1.1333    1.8801 H         1 <0>         0.0394
     33 H4          1.6828   -0.9211   -0.1957 H         1 <0>         0.0430
     34 H5          0.6865   -0.8023   -1.6659 H         1 <0>         0.0517
     35 H6          1.6125    0.6093   -1.1019 H         1 <0>         0.0612
     36 H7         -2.1365    0.4637   -1.6303 H         1 <0>         0.1440
     37 H8         -4.2044   -0.8625   -1.6314 H         1 <0>         0.1544
     38 H9         -2.7272   -3.1469    1.6907 H         1 <0>         0.1565
     39 H10        -5.2367   -3.2694    0.9631 H         1 <0>         0.1702
     40 H11        -8.8110   -4.6411   -4.4350 H         1 <0>         0.1293
     41 H12       -12.0600   -6.3642   -2.2276 H         1 <0>         0.1194
     42 H13       -10.9269   -5.9008   -0.1224 H         1 <0>         0.1182
@<TRIPOS>BOND
     1    1    2 1
     2    1   30 1
     3    1   31 1
     4    1   32 1
     5    2    3 1
     6    2    4 1
     7    3   33 1
     8    3   34 1
     9    3   35 1
    10    4    9 ar
    11    4    5 ar
    12    5    6 ar
    13    5   36 1
    14    6    7 ar
    15    6   37 1
    16    7    8 ar
    17    7   13 1
    18    8    9 ar
    19    8   38 1
    20    9   10 1
    21   10   11 2
    22   10   12 1
    23   13   14 2
    24   13   39 1
    25   14   15 1
    26   14   29 1
    27   15   25 ar
    28   15   16 ar
    29   16   17 ar
    30   17   22 ar
    31   17   18 ar
    32   18   19 ar
    33   18   40 1
    34   19   20 ar
    35   19   26 1
    36   20   21 ar
    37   20   41 1
    38   21   22 ar
    39   21   42 1
    40   22   23 ar
    41   23   24 1
    42   23   25 ar
    43   26   27 2
    44   26   28 1
@<TRIPOS>MOLECULE
ZINC01205921
   48    51     0     0     0
SMALL
USER_CHARGES
N-[[5-(5,7-dimethylbenzooxazol-2-yl)-2-methyl-phenyl]thiocarbamoyl]furan-2-carboxamide
@<TRIPOS>ATOM
      1 C1         -4.6171   -3.3283   -0.5173 C.3       1 <0>        -0.1229
      2 C2         -3.4147   -2.4668   -0.2290 C.ar      1 <0>        -0.0552
      3 C3         -3.5421   -1.0903   -0.2097 C.ar      1 <0>        -0.1195
      4 C4         -2.4470   -0.2951    0.0597 C.ar      1 <0>        -0.0650
      5 C5         -1.2026   -0.8798    0.3025 C.ar      1 <0>        -0.0324
      6 C6         -1.0741   -2.2682    0.2831 C.ar      1 <0>        -0.0091
      7 C7         -2.1817   -3.0586    0.0171 C.ar      1 <0>         0.1099
      8 N1         -2.0580   -4.4520   -0.0040 N.pl3     1 <0>        -0.6175
      9 C8         -1.0486   -5.0286   -0.6860 C.2       1 <0>         0.5048
     10 S1          0.1447   -4.0555   -1.4343 S.2       1 <0>        -0.4609
     11 N2         -0.9786   -6.3714   -0.7789 N.am      1 <0>        -0.6365
     12 C9          0.0308   -6.9480   -1.4609 C.2       1 <0>         0.5839
     13 O1          0.8789   -6.2564   -1.9927 O.2       1 <0>        -0.3824
     14 C10         0.1069   -8.4080   -1.5619 C.2       1 <0>        -0.0943
     15 C11         1.0713   -9.1181   -2.2191 C.2       1 <0>        -0.0994
     16 C12         0.7536  -10.4753   -2.0573 C.2       1 <0>        -0.2233
     17 C13        -0.3763  -10.5341   -1.3180 C.2       1 <0>         0.0053
     18 O2         -0.7601   -9.2867   -1.0172 O.3       1 <0>        -0.1703
     19 C14        -0.0264   -0.0301    0.5852 C.2       1 <0>         0.2966
     20 N3          1.1797   -0.4755    0.8296 N.2       1 <0>        -0.4606
     21 C15         2.0016    0.5839    1.0425 C.ar      1 <0>         0.0361
     22 C16         3.3616    0.7057    1.3389 C.ar      1 <0>        -0.0695
     23 C17         3.9157    1.9554    1.5005 C.ar      1 <0>        -0.0801
     24 C18         3.1328    3.0933    1.3712 C.ar      1 <0>        -0.0973
     25 C19         1.7888    2.9888    1.0784 C.ar      1 <0>        -0.0533
     26 C20         1.2130    1.7387    0.9120 C.ar      1 <0>         0.0043
     27 O3         -0.0389    1.3156    0.6283 O.3       1 <0>        -0.2070
     28 C21         0.9478    4.2315    0.9392 C.3       1 <0>        -0.1149
     29 C22         5.3825    2.0883    1.8201 C.3       1 <0>        -0.1126
     30 H1         -5.1236   -3.5697    0.4172 H         1 <0>         0.0795
     31 H2         -5.3014   -2.7895   -1.1727 H         1 <0>         0.0802
     32 H3         -4.2960   -4.2487   -1.0049 H         1 <0>         0.0642
     33 H4         -4.5029   -0.6360   -0.4017 H         1 <0>         0.1403
     34 H5         -2.5516    0.7796    0.0782 H         1 <0>         0.1377
     35 H6         -0.1149   -2.7263    0.4742 H         1 <0>         0.1620
     36 H7         -2.6986   -5.0031    0.4722 H         1 <0>         0.4100
     37 H8         -1.6547   -6.9228   -0.3549 H         1 <0>         0.4153
     38 H9          1.9146   -8.7134   -2.7589 H         1 <0>         0.1660
     39 H10         1.3078  -11.3151   -2.4498 H         1 <0>         0.1620
     40 H11        -0.8840  -11.4383   -1.0160 H         1 <0>         0.2146
     41 H12         3.9754   -0.1770    1.4413 H         1 <0>         0.1364
     42 H13         3.5789    4.0684    1.5003 H         1 <0>         0.1405
     43 H14         0.5287    4.4972    1.9096 H         1 <0>         0.0752
     44 H15         1.5676    5.0507    0.5745 H         1 <0>         0.0747
     45 H16         0.1389    4.0456    0.2326 H         1 <0>         0.0686
     46 H17         5.5204    2.0861    2.9014 H         1 <0>         0.0744
     47 H18         5.9269    1.2515    1.3827 H         1 <0>         0.0705
     48 H19         5.7610    3.0235    1.4075 H         1 <0>         0.0709
@<TRIPOS>BOND
     1    1    2 1
     2    1   30 1
     3    1   31 1
     4    1   32 1
     5    2    7 ar
     6    2    3 ar
     7    3    4 ar
     8    3   33 1
     9    4    5 ar
    10    4   34 1
    11    5    6 ar
    12    5   19 1
    13    6    7 ar
    14    6   35 1
    15    7    8 1
    16    8    9 1
    17    8   36 1
    18    9   10 2
    19    9   11 1
    20   11   12 am
    21   11   37 1
    22   12   13 2
    23   12   14 1
    24   14   18 1
    25   14   15 2
    26   15   16 1
    27   15   38 1
    28   16   17 2
    29   16   39 1
    30   17   18 1
    31   17   40 1
    32   19   27 1
    33   19   20 2
    34   20   21 1
    35   21   26 ar
    36   21   22 ar
    37   22   23 ar
    38   22   41 1
    39   23   24 ar
    40   23   29 1
    41   24   25 ar
    42   24   42 1
    43   25   26 ar
    44   25   28 1
    45   26   27 1
    46   28   43 1
    47   28   44 1
    48   28   45 1
    49   29   46 1
    50   29   47 1
    51   29   48 1
@<TRIPOS>MOLECULE
ZINC09607199
   46    49     0     0     0
SMALL
USER_CHARGES
3-(4-fluorophenyl)-1-[phenyl-(5-phenyl-1,3,4-oxadiazol-2-yl)-methyl]-urea
@<TRIPOS>ATOM
      1 C1          5.8215    7.4414   -4.9522 C.ar      1 <0>        -0.0893
      2 C2          6.5793    6.6624   -4.0960 C.ar      1 <0>        -0.1202
      3 C3          5.9608    5.8555   -3.1633 C.ar      1 <0>        -0.0638
      4 C4          4.5678    5.8262   -3.0847 C.ar      1 <0>        -0.0340
      5 C5          3.8092    6.6101   -3.9551 C.ar      1 <0>        -0.0814
      6 C6          4.4401    7.4170   -4.8794 C.ar      1 <0>        -0.1205
      7 C7          3.8984    4.9639   -2.0876 C.2       1 <0>         0.2235
      8 N1          4.4878    4.1782   -1.2172 N.2       1 <0>        -0.2719
      9 N2          3.5935    3.5849   -0.5076 N.2       1 <0>        -0.2621
     10 C8          2.4075    3.9581   -0.9002 C.2       1 <0>         0.1535
     11 O1          2.5690    4.8388   -1.9026 O.3       1 <0>        -0.2097
     12 C9          1.0934    3.4914   -0.3289 C.3       1 <0>         0.3157
     13 H1          0.2854    3.7606   -1.0093 H         1 <0>         0.1305
     14 C10         0.8647    4.1491    1.0076 C.ar      1 <0>        -0.1127
     15 C11         1.4868    3.6524    2.1377 C.ar      1 <0>        -0.0842
     16 C12         1.2806    4.2583    3.3630 C.ar      1 <0>        -0.1219
     17 C13         0.4447    5.3550    3.4597 C.ar      1 <0>        -0.1052
     18 C14        -0.1812    5.8488    2.3303 C.ar      1 <0>        -0.1204
     19 C15         0.0285    5.2455    1.1044 C.ar      1 <0>        -0.0910
     20 N3          1.1240    2.0367   -0.1585 N.am      1 <0>        -0.7291
     21 C16        -0.0262    1.3342   -0.1548 C.2       1 <0>         0.7142
     22 O2         -1.0890    1.9073   -0.2978 O.2       1 <0>        -0.5591
     23 N4          0.0021   -0.0041    0.0020 N.am      1 <0>        -0.6805
     24 C17        -1.1956   -0.7213    0.1153 C.ar      1 <0>         0.1547
     25 C18        -2.2940   -0.1459    0.7400 C.ar      1 <0>        -0.0906
     26 C19        -3.4756   -0.8531    0.8465 C.ar      1 <0>        -0.1317
     27 C20        -3.5620   -2.1390    0.3401 C.ar      1 <0>         0.0827
     28 C21        -2.4661   -2.7166   -0.2786 C.ar      1 <0>        -0.1321
     29 C22        -1.2843   -2.0108   -0.3918 C.ar      1 <0>        -0.1172
     30 F1         -4.7173   -2.8309    0.4494 F         1 <0>        -0.1392
     31 H2          6.3105    8.0716   -5.6803 H         1 <0>         0.1329
     32 H3          7.6572    6.6862   -4.1577 H         1 <0>         0.1370
     33 H4          6.5535    5.2480   -2.4953 H         1 <0>         0.1410
     34 H5          2.7307    6.5883   -3.9025 H         1 <0>         0.1327
     35 H6          3.8543    8.0276   -5.5506 H         1 <0>         0.1351
     36 H7          2.1367    2.7931    2.0628 H         1 <0>         0.1243
     37 H8          1.7698    3.8728    4.2452 H         1 <0>         0.1262
     38 H9          0.2808    5.8264    4.4175 H         1 <0>         0.1257
     39 H10        -0.8343    6.7056    2.4059 H         1 <0>         0.1277
     40 H11        -0.4608    5.6310    0.2221 H         1 <0>         0.1266
     41 H12         1.9722    1.5791   -0.0484 H         1 <0>         0.4092
     42 H13         0.8519   -0.4705    0.0364 H         1 <0>         0.4110
     43 H14        -2.2257    0.8554    1.1387 H         1 <0>         0.1465
     44 H15        -4.3316   -0.4043    1.3284 H         1 <0>         0.1397
     45 H16        -2.5356   -3.7195   -0.6733 H         1 <0>         0.1406
     46 H17        -0.4298   -2.4614   -0.8747 H         1 <0>         0.1366
@<TRIPOS>BOND
     1    1    6 ar
     2    1    2 ar
     3    1   31 1
     4    2    3 ar
     5    2   32 1
     6    3    4 ar
     7    3   33 1
     8    4    5 ar
     9    4    7 1
    10    5    6 ar
    11    5   34 1
    12    6   35 1
    13    7   11 1
    14    7    8 2
    15    8    9 1
    16    9   10 2
    17   10   11 1
    18   10   12 1
    19   12   13 1
    20   12   14 1
    21   12   20 1
    22   14   19 ar
    23   14   15 ar
    24   15   16 ar
    25   15   36 1
    26   16   17 ar
    27   16   37 1
    28   17   18 ar
    29   17   38 1
    30   18   19 ar
    31   18   39 1
    32   19   40 1
    33   20   21 am
    34   20   41 1
    35   21   22 2
    36   21   23 am
    37   23   24 1
    38   23   42 1
    39   24   29 ar
    40   24   25 ar
    41   25   26 ar
    42   25   43 1
    43   26   27 ar
    44   26   44 1
    45   27   28 ar
    46   27   30 1
    47   28   29 ar
    48   28   45 1
    49   29   46 1
@<TRIPOS>MOLECULE
ZINC11011263
   44    46     0     0     0
SMALL
USER_CHARGES

@<TRIPOS>ATOM
      1 C1         -0.0194    1.5379   -0.0045 C.3       1 <0>        -0.1468
      2 C2          0.0033    0.0080   -0.0017 C.3       1 <0>        -0.1180
      3 H1          0.5320   -0.3459    0.8833 H         1 <0>         0.1317
      4 C3          0.7079   -0.4861   -1.2388 C.2       1 <0>         0.5430
      5 O1          0.0664   -0.7858   -2.2229 O.2       1 <0>        -0.4422
      6 N1          2.0512   -0.5949   -1.2512 N.am      1 <0>        -0.6817
      7 C4          2.6813   -1.0368   -2.3576 C.2       1 <0>         0.6964
      8 O2          2.0382   -1.3373   -3.3442 O.2       1 <0>        -0.5062
      9 N2          4.0246   -1.1456   -2.3700 N.am      1 <0>        -0.6761
     10 C5          4.6719   -1.6949   -3.4824 C.ar      1 <0>         0.1512
     11 C6          5.8113   -2.4702   -3.3119 C.ar      1 <0>        -0.1416
     12 C7          6.4479   -3.0109   -4.4119 C.ar      1 <0>        -0.1017
     13 C8          5.9518   -2.7809   -5.6820 C.ar      1 <0>        -0.1305
     14 C9          4.8177   -2.0090   -5.8552 C.ar      1 <0>        -0.1009
     15 C10         4.1729   -1.4706   -4.7588 C.ar      1 <0>        -0.1182
     16 S1         -1.6977   -0.6220    0.0177 S.3       1 <0>         0.0782
     17 C11        -2.3317   -0.0894    1.5730 C.ar      1 <0>         0.1948
     18 C12        -3.6577   -0.4011    1.9641 C.ar      1 <0>        -0.1207
     19 C13        -4.5202   -1.1391    1.1467 C.ar      1 <0>        -0.0787
     20 C14        -5.7862   -1.4094    1.5770 C.ar      1 <0>        -0.0971
     21 C15        -6.2304   -0.9608    2.8175 C.ar      1 <0>        -0.0719
     22 C16        -5.4141   -0.2394    3.6372 C.ar      1 <0>        -0.0897
     23 C17        -4.1074    0.0561    3.2264 C.ar      1 <0>         0.1680
     24 N3         -3.2633    0.7613    3.9948 N.ar      1 <0>        -0.4611
     25 C18        -2.0455    1.0205    3.5813 C.ar      1 <0>         0.2573
     26 N4         -1.5789    0.6101    2.4130 N.ar      1 <0>        -0.5107
     27 C19        -1.1348    1.8167    4.4801 C.3       1 <0>         0.5480
     28 F1         -0.1922    0.9630    5.0631 F         1 <0>        -0.1626
     29 F2         -0.4757    2.7948    3.7277 F         1 <0>        -0.1598
     30 F3         -1.8911    2.4314    5.4837 F         1 <0>        -0.1529
     31 H2          1.0027    1.9164   -0.0162 H         1 <0>         0.0775
     32 H3         -0.5481    1.8918   -0.8896 H         1 <0>         0.0766
     33 H4         -0.5291    1.8953    0.8903 H         1 <0>         0.0919
     34 H5          2.5645   -0.3551   -0.4639 H         1 <0>         0.4148
     35 H6          4.5428   -0.8432   -1.6078 H         1 <0>         0.4105
     36 H7          6.1995   -2.6499   -2.3202 H         1 <0>         0.1263
     37 H8          7.3343   -3.6137   -4.2799 H         1 <0>         0.1281
     38 H9          6.4514   -3.2048   -6.5405 H         1 <0>         0.1250
     39 H10         4.4328   -1.8309   -6.8484 H         1 <0>         0.1275
     40 H11         3.2843   -0.8720   -4.8943 H         1 <0>         0.1401
     41 H12        -4.1865   -1.4919    0.1821 H         1 <0>         0.1441
     42 H13        -6.4530   -1.9788    0.9464 H         1 <0>         0.1430
     43 H14        -7.2374   -1.1875    3.1354 H         1 <0>         0.1448
     44 H15        -5.7724    0.1024    4.5970 H         1 <0>         0.1501
@<TRIPOS>BOND
     1    1    2 1
     2    1   31 1
     3    1   32 1
     4    1   33 1
     5    2    3 1
     6    2    4 1
     7    2   16 1
     8    4    5 2
     9    4    6 am
    10    6    7 am
    11    6   34 1
    12    7    8 2
    13    7    9 am
    14    9   10 1
    15    9   35 1
    16   10   15 ar
    17   10   11 ar
    18   11   12 ar
    19   11   36 1
    20   12   13 ar
    21   12   37 1
    22   13   14 ar
    23   13   38 1
    24   14   15 ar
    25   14   39 1
    26   15   40 1
    27   16   17 1
    28   17   26 ar
    29   17   18 ar
    30   18   23 ar
    31   18   19 ar
    32   19   20 ar
    33   19   41 1
    34   20   21 ar
    35   20   42 1
    36   21   22 ar
    37   21   43 1
    38   22   23 ar
    39   22   44 1
    40   23   24 ar
    41   24   25 ar
    42   25   26 ar
    43   25   27 1
    44   27   28 1
    45   27   29 1
    46   27   30 1
@<TRIPOS>MOLECULE
ZINC45536563
   48    50     0     0     0
SMALL
USER_CHARGES

@<TRIPOS>ATOM
      1 C1         -1.2988   -0.2566    0.2902 C.3       1 <0>        -0.1230
      2 C2         -1.2046   -1.6894    0.7477 C.ar      1 <0>        -0.0191
      3 C3         -1.4808   -2.7157   -0.1322 C.ar      1 <0>        -0.1324
      4 C4         -1.3948   -4.0315    0.2862 C.ar      1 <0>        -0.0854
      5 C5         -1.0315   -4.3277    1.5882 C.ar      1 <0>        -0.1348
      6 C6         -0.7523   -3.3111    2.4777 C.ar      1 <0>        -0.0806
      7 C7         -0.8321   -1.9813    2.0606 C.ar      1 <0>        -0.1451
      8 C8         -0.5286   -0.8868    3.0070 C.2       1 <0>         0.5658
      9 O1         -0.4906    0.2630    2.6145 O.2       1 <0>        -0.5211
     10 N1         -0.2941   -1.1639    4.3050 N.am      1 <0>        -0.7110
     11 C9          0.0066   -0.0793    5.2428 C.3       1 <0>         0.1370
     12 H1          0.5866    0.6906    4.7340 H         1 <0>         0.1191
     13 C10        -1.3005    0.5250    5.7597 C.3       1 <0>        -0.1011
     14 C11        -2.0329    1.2169    4.6083 C.3       1 <0>        -0.1392
     15 C12        -2.1842   -0.5849    6.3325 C.3       1 <0>        -0.1515
     16 C13         0.8014   -0.6233    6.4018 C.2       1 <0>         0.5187
     17 O2          0.7903   -1.8127    6.6397 O.2       1 <0>        -0.5067
     18 N2          1.5245    0.2116    7.1741 N.am      1 <0>        -0.6664
     19 C14         2.3665   -0.3055    8.1673 C.ar      1 <0>         0.1679
     20 C15         3.0596   -1.4875    7.9436 C.ar      1 <0>        -0.0978
     21 C16         3.8907   -1.9985    8.9220 C.ar      1 <0>        -0.0585
     22 C17         4.0345   -1.3334   10.1290 C.ar      1 <0>         0.0138
     23 C18         3.3405   -0.1475   10.3564 C.ar      1 <0>         0.0489
     24 C19         2.5121    0.3669    9.3728 C.ar      1 <0>        -0.1064
     25 O3          3.6487    0.3057   11.6066 O.3       1 <0>        -0.2849
     26 C20         4.2172   -0.8233   12.2958 C.3       1 <0>         0.5717
     27 O4          4.7779   -1.6229   11.2378 O.3       1 <0>        -0.2841
     28 F1          5.2179   -0.4065   13.1802 F         1 <0>        -0.1141
     29 F2          3.2235   -1.5353   12.9762 F         1 <0>        -0.1515
     30 H2         -0.3094    0.0986    0.0022 H         1 <0>         0.0762
     31 H3         -1.9713   -0.1918   -0.5651 H         1 <0>         0.0584
     32 H4         -1.6838    0.3596    1.1027 H         1 <0>         0.0957
     33 H5         -1.7652   -2.4913   -1.1496 H         1 <0>         0.1303
     34 H6         -1.6124   -4.8312   -0.4064 H         1 <0>         0.1284
     35 H7         -0.9669   -5.3570    1.9087 H         1 <0>         0.1295
     36 H8         -0.4688   -3.5435    3.4936 H         1 <0>         0.1261
     37 H9         -0.3244   -2.0814    4.6182 H         1 <0>         0.4102
     38 H10        -1.0804    1.2534    6.5402 H         1 <0>         0.0836
     39 H11        -2.3732    0.4687    3.8923 H         1 <0>         0.0575
     40 H12        -2.8917    1.7624    4.9995 H         1 <0>         0.0547
     41 H13        -1.3557    1.9125    4.1126 H         1 <0>         0.0682
     42 H14        -1.6624   -1.0779    7.1528 H         1 <0>         0.0564
     43 H15        -3.1154   -0.1544    6.7007 H         1 <0>         0.0620
     44 H16        -2.4042   -1.3133    5.5520 H         1 <0>         0.0603
     45 H17         1.4621    1.1706    7.0421 H         1 <0>         0.4190
     46 H18         2.9488   -2.0083    7.0040 H         1 <0>         0.1538
     47 H19         4.4289   -2.9181    8.7458 H         1 <0>         0.1513
     48 H20         1.9765    1.2887    9.5454 H         1 <0>         0.1502
@<TRIPOS>BOND
     1    1    2 1
     2    1   30 1
     3    1   31 1
     4    1   32 1
     5    2    7 ar
     6    2    3 ar
     7    3    4 ar
     8    3   33 1
     9    4    5 ar
    10    4   34 1
    11    5    6 ar
    12    5   35 1
    13    6    7 ar
    14    6   36 1
    15    7    8 1
    16    8    9 2
    17    8   10 am
    18   10   11 1
    19   10   37 1
    20   11   12 1
    21   11   13 1
    22   11   16 1
    23   13   14 1
    24   13   15 1
    25   13   38 1
    26   14   39 1
    27   14   40 1
    28   14   41 1
    29   15   42 1
    30   15   43 1
    31   15   44 1
    32   16   17 2
    33   16   18 am
    34   18   19 1
    35   18   45 1
    36   19   24 ar
    37   19   20 ar
    38   20   21 ar
    39   20   46 1
    40   21   22 ar
    41   21   47 1
    42   22   27 1
    43   22   23 ar
    44   23   24 ar
    45   23   25 1
    46   24   48 1
    47   25   26 1
    48   26   27 1
    49   26   28 1
    50   26   29 1
@<TRIPOS>MOLECULE
ZINC06813159
   49    52     0     0     0
SMALL
USER_CHARGES

@<TRIPOS>ATOM
      1 C1         -0.0184    1.5028    0.0103 C.3       1 <0>        -0.1157
      2 C2          0.0021   -0.0041    0.0020 C.ar      1 <0>        -0.0915
      3 C3          0.0057   -0.6873   -1.2005 C.ar      1 <0>        -0.1008
      4 C4          0.0239   -2.0679   -1.2119 C.ar      1 <0>        -0.0950
      5 C5          0.0391   -2.7710   -0.0132 C.ar      1 <0>        -0.0896
      6 C6          0.0359   -2.0810    1.1932 C.ar      1 <0>        -0.1310
      7 C7          0.0229   -0.7003    1.1969 C.ar      1 <0>        -0.0997
      8 S1          0.0619   -4.5328   -0.0229 S.3       1 <0>        -0.0677
      9 C8          0.0766   -4.9812    1.7348 C.3       1 <0>        -0.0375
     10 C9          0.0967   -6.4819    1.8702 C.2       1 <0>         0.1302
     11 C10        -1.0161   -7.3087    1.9436 C.2       1 <0>        -0.2463
     12 C11        -0.5785   -8.5986    2.0612 C.2       1 <0>         0.2772
     13 N1          0.7639   -8.5734    2.0594 N.pl3     1 <0>        -0.4384
     14 H1          1.3497   -9.3434    2.1289 H         1 <0>         0.4496
     15 N2          1.1689   -7.2354    1.9335 N.2       1 <0>        -0.2417
     16 O1         -1.4257   -9.6532    2.1588 O.3       1 <0>        -0.2293
     17 C12        -2.7235   -9.3901    2.4138 C.2       1 <0>         0.4361
     18 C13        -3.2744   -8.1596    2.3195 C.2       1 <0>        -0.2532
     19 C14        -2.4784   -6.9462    1.9078 C.3       1 <0>         0.1243
     20 H2         -2.6715   -6.1279    2.6015 H         1 <0>         0.0946
     21 C15        -2.8655   -6.5322    0.5114 C.ar      1 <0>        -0.1082
     22 C16        -2.7243   -7.4229   -0.5366 C.ar      1 <0>        -0.0580
     23 C17        -3.0780   -7.0457   -1.8176 C.ar      1 <0>        -0.1499
     24 C18        -3.5758   -5.7721   -2.0519 C.ar      1 <0>         0.1299
     25 C19        -3.7170   -4.8804   -0.9985 C.ar      1 <0>        -0.1978
     26 C20        -3.3667   -5.2643    0.2815 C.ar      1 <0>        -0.0584
     27 O2         -3.9241   -5.3985   -3.3113 O.3       1 <0>        -0.3192
     28 C21        -4.4293   -4.0723   -3.4782 C.3       1 <0>         0.0280
     29 C22        -4.6654   -8.0021    2.6207 C.1       1 <0>         0.2710
     30 N3         -5.7690   -7.8771    2.8596 N.1       1 <0>        -0.4370
     31 N4         -3.5322  -10.4330    2.7917 N.pl3     1 <0>        -0.8311
     32 H3          1.0042    1.8801    0.0026 H         1 <0>         0.0710
     33 H4         -0.5455    1.8639   -0.8728 H         1 <0>         0.0668
     34 H5         -0.5286    1.8543    0.9071 H         1 <0>         0.0665
     35 H6         -0.0061   -0.1403   -2.1316 H         1 <0>         0.1264
     36 H7          0.0260   -2.6008   -2.1513 H         1 <0>         0.1260
     37 H8          0.0477   -2.6241    2.1266 H         1 <0>         0.1224
     38 H9          0.0244   -0.1634    2.1339 H         1 <0>         0.1246
     39 H10         0.9637   -4.5616    2.2093 H         1 <0>         0.1082
     40 H11        -0.8161   -4.5846    2.2184 H         1 <0>         0.1110
     41 H12        -2.3367   -8.4143   -0.3537 H         1 <0>         0.1159
     42 H13        -2.9668   -7.7415   -2.6361 H         1 <0>         0.1259
     43 H14        -4.1042   -3.8884   -1.1784 H         1 <0>         0.1244
     44 H15        -3.4805   -4.5720    1.1026 H         1 <0>         0.1191
     45 H16        -5.3295   -3.9480   -2.8763 H         1 <0>         0.0542
     46 H17        -3.6756   -3.3532   -3.1572 H         1 <0>         0.0557
     47 H18        -4.6682   -3.9039   -4.5282 H         1 <0>         0.0984
     48 H19        -3.1656  -11.3278    2.8685 H         1 <0>         0.4115
     49 H20        -4.4702  -10.2752    2.9819 H         1 <0>         0.4282
@<TRIPOS>BOND
     1    1    2 1
     2    1   32 1
     3    1   33 1
     4    1   34 1
     5    2    7 ar
     6    2    3 ar
     7    3    4 ar
     8    3   35 1
     9    4    5 ar
    10    4   36 1
    11    5    6 ar
    12    5    8 1
    13    6    7 ar
    14    6   37 1
    15    7   38 1
    16    8    9 1
    17    9   10 1
    18    9   39 1
    19    9   40 1
    20   10   15 2
    21   10   11 1
    22   11   19 1
    23   11   12 2
    24   12   13 1
    25   12   16 1
    26   13   14 1
    27   13   15 1
    28   16   17 1
    29   17   18 2
    30   17   31 1
    31   18   19 1
    32   18   29 1
    33   19   20 1
    34   19   21 1
    35   21   26 ar
    36   21   22 ar
    37   22   23 ar
    38   22   41 1
    39   23   24 ar
    40   23   42 1
    41   24   25 ar
    42   24   27 1
    43   25   26 ar
    44   25   43 1
    45   26   44 1
    46   27   28 1
    47   28   45 1
    48   28   46 1
    49   28   47 1
    50   29   30 3
    51   31   48 1
    52   31   49 1
@<TRIPOS>MOLECULE
ZINC13253017
   48    50     0     0     0
SMALL
USER_CHARGES
5-[[4-[(4-fluorophenyl)carbamoyl]-1-piperidyl]sulfonyl]-3-methyl-thiophene-2,4-dicarboxylic acid
@<TRIPOS>ATOM
      1 C1          3.7490    3.3372    0.0329 C.3       1 <0>        -0.0901
      2 C2          2.3516    3.9014    0.0402 C.2       1 <0>        -0.1199
      3 C3          2.1290    5.2706    0.0436 C.2       1 <0>         0.0236
      4 C4          0.8154    5.7174    0.0508 C.2       1 <0>        -0.8223
      5 S1         -0.0970    4.2438    0.0448 S.3       1 <0>         0.1886
      6 C5          1.2551    3.0815    0.0441 C.2       1 <0>        -0.1284
      7 C6          1.2052    1.6168    0.0418 C.2       1 <0>         0.5302
      8 O1          2.2371    0.9733    0.0357 O.co2     1 <0>        -0.6041
      9 S2          0.2207    7.3760    0.0566 S.o2      1 <0>         2.7275
     10 O2         -1.0859    7.3371    0.6137 O.2       1 <0>        -0.9696
     11 O3          1.2586    8.1777    0.6038 O.2       1 <0>        -0.9260
     12 N1          0.0478    7.8397   -1.5238 N.pl3     1 <0>        -0.9969
     13 C7          1.1577    8.4815   -2.2413 C.3       1 <0>         0.1219
     14 C8          0.6676    9.7987   -2.8400 C.3       1 <0>        -0.1217
     15 C9         -0.5698    9.5359   -3.7013 C.3       1 <0>        -0.1046
     16 C10        -1.6857    8.9544   -2.8302 C.3       1 <0>        -0.1077
     17 C11        -1.2204    7.6226   -2.2331 C.3       1 <0>         0.1149
     18 C12        -1.0365   10.8295   -4.3177 C.2       1 <0>         0.5243
     19 O4         -2.1515   11.2453   -4.0834 O.2       1 <0>        -0.5183
     20 N2         -0.2148   11.5242   -5.1293 N.am      1 <0>        -0.6763
     21 C13        -0.6801   12.6744   -5.7784 C.ar      1 <0>         0.1436
     22 C14        -0.2297   12.9824   -7.0552 C.ar      1 <0>        -0.1192
     23 C15        -0.6950   14.1138   -7.6964 C.ar      1 <0>        -0.1346
     24 C16        -1.6003   14.9475   -7.0617 C.ar      1 <0>         0.0744
     25 C17        -2.0460   14.6454   -5.7859 C.ar      1 <0>        -0.1337
     26 C18        -1.5883   13.5115   -5.1439 C.ar      1 <0>        -0.0940
     27 F1         -2.0496   16.0570   -7.6882 F         1 <0>        -0.1440
     28 C19         3.2529    6.2211    0.0403 C.2       1 <0>         0.5108
     29 O5          3.7119    6.6158   -1.0136 O.co2     1 <0>        -0.6307
     30 H1          4.0813    3.2030   -0.9965 H         1 <0>         0.0583
     31 H2          4.4214    4.0254    0.5450 H         1 <0>         0.0606
     32 H3          3.7549    2.3749    0.5450 H         1 <0>         0.0866
     33 H4          1.9755    8.6787   -1.5482 H         1 <0>         0.1114
     34 H5          1.5035    7.8263   -3.0408 H         1 <0>         0.0746
     35 H6          1.4540   10.2345   -3.4563 H         1 <0>         0.0779
     36 H7          0.4111   10.4880   -2.0355 H         1 <0>         0.0753
     37 H8         -0.3187    8.8273   -4.4907 H         1 <0>         0.1075
     38 H9         -2.5743    8.7893   -3.4395 H         1 <0>         0.0817
     39 H10        -1.9200    9.6516   -2.0258 H         1 <0>         0.0766
     40 H11        -1.0725    6.8958   -3.0319 H         1 <0>         0.0713
     41 H12        -1.9712    7.2532   -1.5346 H         1 <0>         0.0983
     42 H13         0.6988   11.2275   -5.2637 H         1 <0>         0.4157
     43 H14         0.4800   12.3349   -7.5487 H         1 <0>         0.1369
     44 H15        -0.3488   14.3509   -8.6916 H         1 <0>         0.1371
     45 H16        -2.7524   15.2968   -5.2928 H         1 <0>         0.1371
     46 H17        -1.9367   13.2759   -4.1492 H         1 <0>         0.1508
     47 O6          0.0150    0.9825    0.0465 O.co2     1 <0>        -0.7457
     48 O7          3.7729    6.6538    1.2059 O.co2     1 <0>        -0.7295
@<TRIPOS>BOND
     1    1    2 1
     2    1   30 1
     3    1   31 1
     4    1   32 1
     5    2    6 2
     6    2    3 1
     7    3    4 2
     8    3   28 1
     9    4    5 1
    10    4    9 1
    11    5    6 1
    12    6    7 1
    13    7    8 2
    14    7   47 1
    15    9   10 2
    16    9   11 2
    17    9   12 1
    18   12   17 1
    19   12   13 1
    20   13   14 1
    21   13   33 1
    22   13   34 1
    23   14   15 1
    24   14   35 1
    25   14   36 1
    26   15   16 1
    27   15   18 1
    28   15   37 1
    29   16   17 1
    30   16   38 1
    31   16   39 1
    32   17   40 1
    33   17   41 1
    34   18   19 2
    35   18   20 am
    36   20   21 1
    37   20   42 1
    38   21   26 ar
    39   21   22 ar
    40   22   23 ar
    41   22   43 1
    42   23   24 ar
    43   23   44 1
    44   24   25 ar
    45   24   27 1
    46   25   26 ar
    47   25   45 1
    48   26   46 1
    49   28   29 2
    50   28   48 1
@<TRIPOS>MOLECULE
ZINC22135319
   43    45     0     0     0
SMALL
USER_CHARGES
2-[2-bromo-4-[(E)-[1-(4-methoxyphenyl)-4,6-dioxo-2-thioxo-hexahydropyrimidin-5-ylidene]methyl]phenoxy]acetic acid
@<TRIPOS>ATOM
      1 C1          9.3523   -0.0736   -1.6964 C.3       1 <0>         0.0253
      2 O1          8.5952   -0.1102   -0.4850 O.3       1 <0>        -0.3206
      3 C2          7.3323    0.3912   -0.5311 C.ar      1 <0>         0.1229
      4 C3          6.5424    0.3867    0.6093 C.ar      1 <0>        -0.1460
      5 C4          5.2599    0.8962    0.5632 C.ar      1 <0>        -0.0589
      6 C5          4.7607    1.4128   -0.6249 C.ar      1 <0>         0.1217
      7 C6          5.5497    1.4119   -1.7673 C.ar      1 <0>        -0.0288
      8 C7          6.8342    0.9077   -1.7185 C.ar      1 <0>        -0.2002
      9 N1          3.4580    1.9300   -0.6725 N.am      1 <0>        -0.5066
     10 C8          2.4102    1.0866   -0.5695 C.2       1 <0>         0.5635
     11 O2          2.5821   -0.1104   -0.4370 O.2       1 <0>        -0.5117
     12 C9          1.0493    1.6562   -0.6224 C.2       1 <0>        -0.2975
     13 C10        -0.0722    0.8556   -0.5241 C.2       1 <0>         0.0876
     14 C11        -1.3926    1.4634   -0.3600 C.ar      1 <0>        -0.1466
     15 C12        -1.5760    2.5142    0.5519 C.ar      1 <0>         0.0436
     16 C13        -2.8082    3.0832    0.6985 C.ar      1 <0>        -0.2233
     17 C14        -3.8887    2.6182   -0.0446 C.ar      1 <0>         0.1934
     18 C15        -3.7208    1.5724   -0.9484 C.ar      1 <0>        -0.1530
     19 C16        -2.4823    0.9943   -1.1096 C.ar      1 <0>        -0.0163
     20 Br1        -5.1945    0.9469   -1.9549 Br        1 <0>        -0.0470
     21 O3         -5.1107    3.1858    0.1124 O.3       1 <0>        -0.2690
     22 C17        -5.2135    4.2540    1.0560 C.3       1 <0>         0.0113
     23 C18        -6.6341    4.7555    1.0942 C.2       1 <0>         0.4724
     24 O4         -7.4725    4.2499    0.3861 O.co2     1 <0>        -0.6112
     25 O5         -6.9681    5.7638    1.9149 O.co2     1 <0>        -0.7584
     26 C19         0.9402    3.1191   -0.7914 C.2       1 <0>         0.5258
     27 O6         -0.1466    3.6623   -0.8485 O.3       1 <0>        -0.4935
     28 N2          2.0793    3.8370   -0.8753 N.2       1 <0>        -0.6205
     29 C20         3.2832    3.2506   -0.8196 C.2       1 <0>         0.5443
     30 S1          4.6732    4.2425   -0.9425 S.2       1 <0>        -0.6999
     31 H1         10.3478   -0.5070   -1.5198 H         1 <0>         0.0950
     32 H2          9.4602    0.9690   -2.0300 H         1 <0>         0.0563
     33 H3          8.8317   -0.6547   -2.4718 H         1 <0>         0.0536
     34 H4          6.9308   -0.0152    1.5335 H         1 <0>         0.1303
     35 H5          4.6450    0.8926    1.4511 H         1 <0>         0.1249
     36 H6          5.1605    1.8098   -2.6928 H         1 <0>         0.1251
     37 H7          7.4497    0.9113   -2.6059 H         1 <0>         0.1279
     38 H8          0.0277   -0.2389   -0.5692 H         1 <0>         0.1438
     39 H9         -0.7415    2.8754    1.1345 H         1 <0>         0.1243
     40 H10        -2.9459    3.8948    1.3977 H         1 <0>         0.1381
     41 H11        -2.3496    0.1828   -1.8098 H         1 <0>         0.1350
     42 H12        -4.9259    3.8908    2.0537 H         1 <0>         0.0700
     43 H13        -4.5433    5.0733    0.7568 H         1 <0>         0.0730
@<TRIPOS>BOND
     1    1    2 1
     2    1   31 1
     3    1   32 1
     4    1   33 1
     5    2    3 1
     6    3    8 ar
     7    3    4 ar
     8    4    5 ar
     9    4   34 1
    10    5    6 ar
    11    5   35 1
    12    6    7 ar
    13    6    9 1
    14    7    8 ar
    15    7   36 1
    16    8   37 1
    17    9   29 1
    18    9   10 am
    19   10   11 2
    20   10   12 1
    21   12   13 2
    22   12   26 1
    23   13   14 1
    24   13   38 1
    25   14   19 ar
    26   14   15 ar
    27   15   16 ar
    28   15   39 1
    29   16   17 ar
    30   16   40 1
    31   17   18 ar
    32   17   21 1
    33   18   19 ar
    34   18   20 1
    35   19   41 1
    36   21   22 1
    37   22   23 1
    38   22   42 1
    39   22   43 1
    40   23   24 2
    41   23   25 1
    42   26   27 1
    43   26   28 2
    44   28   29 1
    45   29   30 2
@<TRIPOS>MOLECULE
ZINC37789802
   30    30     0     0     0
SMALL
USER_CHARGES

@<TRIPOS>ATOM
      1 C1         -0.4086    1.6082    1.2103 C.3       1 <0>         0.0398
      2 O1         -0.2503    0.2098    0.9623 O.3       1 <0>        -0.3725
      3 C2         -1.3635   -0.4885    0.6634 C.2       1 <0>         0.5035
      4 O2         -2.4393    0.0748    0.6147 O.2       1 <0>        -0.4547
      5 C3         -1.2764   -1.9342    0.3957 C.ar      1 <0>        -0.1862
      6 C4         -0.0418   -2.5877    0.4563 C.ar      1 <0>         0.0024
      7 C5          0.0331   -3.9405    0.2054 C.ar      1 <0>        -0.1842
      8 C6         -1.1110   -4.6594   -0.1081 C.ar      1 <0>        -0.0126
      9 C7         -2.3369   -4.0289   -0.1718 C.ar      1 <0>        -0.1799
     10 C8         -2.4332   -2.6656    0.0840 C.ar      1 <0>         0.3676
     11 N1         -3.6668   -2.0297    0.0261 N.2       1 <0>        -1.1150
     12 S1         -4.7930   -2.2979    1.2102 S.o2      1 <0>         2.5501
     13 O3         -5.1383   -3.6700    1.0782 O.2       1 <0>        -1.0073
     14 O4         -4.1883   -1.8145    2.4018 O.2       1 <0>        -1.0297
     15 C9         -6.2042   -1.2521    0.7570 C.3       1 <0>        -0.5501
     16 C10        -7.3176   -1.4210    1.7927 C.3       1 <0>        -0.1739
     17 C11        -8.4899   -0.5521    1.4162 C.2       1 <0>         0.5017
     18 O5         -8.4396    0.1382    0.4124 O.co2     1 <0>        -0.6926
     19 O6         -9.4887   -0.5395    2.1152 O.co2     1 <0>        -0.7128
     20 Br1        -3.8884   -5.0213   -0.6008 Br        1 <0>        -0.0138
     21 Br2         1.7043   -4.8214    0.2881 Br        1 <0>        -0.0870
     22 H1          0.5620    2.0489    1.4383 H         1 <0>         0.0876
     23 H2         -0.8272    2.0889    0.3262 H         1 <0>         0.0527
     24 H3         -1.0812    1.7534    2.0557 H         1 <0>         0.0549
     25 H4          0.8523   -2.0327    0.6992 H         1 <0>         0.1303
     26 H5         -1.0419   -5.7193   -0.3038 H         1 <0>         0.1239
     27 H6         -5.8892   -0.2090    0.7289 H         1 <0>         0.1145
     28 H7         -6.5739   -1.5465   -0.2252 H         1 <0>         0.1132
     29 H8         -7.6326   -2.4641    1.8207 H         1 <0>         0.0662
     30 H9         -6.9478   -1.1266    2.7749 H         1 <0>         0.0640
@<TRIPOS>BOND
     1    1    2 1
     2    1   22 1
     3    1   23 1
     4    1   24 1
     5    2    3 1
     6    3    4 2
     7    3    5 1
     8    5   10 ar
     9    5    6 ar
    10    6    7 ar
    11    6   25 1
    12    7    8 ar
    13    7   21 1
    14    8    9 ar
    15    8   26 1
    16    9   10 ar
    17    9   20 1
    18   10   11 1
    19   11   12 1
    20   12   13 2
    21   12   14 2
    22   12   15 1
    23   15   16 1
    24   15   27 1
    25   15   28 1
    26   16   17 1
    27   16   29 1
    28   16   30 1
    29   17   18 2
    30   17   19 1
@<TRIPOS>MOLECULE
ZINC40567387
   41    43     0     0     0
SMALL
USER_CHARGES

@<TRIPOS>ATOM
      1 C1         -0.0166    1.3746    0.0096 C.ar      1 <0>        -0.1348
      2 C2          1.1700    2.0875    0.0021 C.ar      1 <0>        -0.0813
      3 C3          2.3836    1.4243   -0.0135 C.ar      1 <0>        -0.1552
      4 C4          2.4191    0.0428   -0.0216 C.ar      1 <0>         0.1289
      5 C5          1.2231   -0.6833   -0.0137 C.ar      1 <0>        -0.0556
      6 C6          0.0021   -0.0041    0.0020 C.ar      1 <0>        -0.0633
      7 C7          1.2510   -2.1582   -0.0228 C.2       1 <0>         0.0299
      8 C8          0.5525   -2.9805    0.8322 C.2       1 <0>        -0.1832
      9 C9          0.8632   -4.2959    0.4786 C.2       1 <0>        -0.1644
     10 C10         1.7449   -4.2265   -0.5854 C.2       1 <0>         0.0176
     11 O1          1.9589   -2.9252   -0.8719 O.3       1 <0>        -0.1358
     12 C11         2.3179   -5.3267   -1.2579 C.2       1 <0>         0.0334
     13 C12         3.1778   -5.1187   -2.2978 C.2       1 <0>        -0.1715
     14 C13         3.8614   -6.0692   -3.1153 C.2       1 <0>         0.5306
     15 O2          3.7217   -7.2659   -2.9365 O.2       1 <0>        -0.4872
     16 N1          4.6499   -5.6114   -4.0722 N.am      1 <0>        -0.4846
     17 C14         4.8046   -4.2835   -4.2703 C.2       1 <0>         0.2306
     18 S1          5.7639   -3.4775   -5.4369 S.2       1 <0>        -0.1593
     19 S2          3.7484   -3.5824   -3.0117 S.3       1 <0>         0.0012
     20 C15         5.3672   -6.5575   -4.9305 C.3       1 <0>         0.0449
     21 H1          5.1254   -7.5767   -4.6293 H         1 <0>         0.1017
     22 C16         6.8738   -6.3290   -4.7937 C.3       1 <0>        -0.1024
     23 C17         7.3129   -6.6639   -3.3668 C.3       1 <0>        -0.1762
     24 C18         8.7969   -6.4389   -3.2320 C.2       1 <0>         0.4952
     25 O3          9.4434   -6.0470   -4.1885 O.co2     1 <0>        -0.6917
     26 O4          9.3510   -6.6487   -2.1664 O.co2     1 <0>        -0.7186
     27 C19         4.9553   -6.3465   -6.3647 C.2       1 <0>         0.5022
     28 O5          4.6156   -5.2389   -6.7447 O.co2     1 <0>        -0.6537
     29 O6          4.9619   -7.2833   -7.1450 O.co2     1 <0>        -0.6843
     30 F1          3.6048   -0.6046   -0.0377 F         1 <0>        -0.1201
     31 H2         -0.9601    1.9000    0.0259 H         1 <0>         0.1339
     32 H3          1.1480    3.1673    0.0081 H         1 <0>         0.1346
     33 H4          3.3053    1.9872   -0.0196 H         1 <0>         0.1415
     34 H5         -0.9251   -0.5578    0.0082 H         1 <0>         0.1380
     35 H6         -0.1096   -2.6680    1.6262 H         1 <0>         0.1551
     36 H7          0.4876   -5.1942    0.9460 H         1 <0>         0.1611
     37 H8          2.0762   -6.3333   -0.9501 H         1 <0>         0.1793
     38 H9          7.4040   -6.9711   -5.4971 H         1 <0>         0.0786
     39 H10         7.1042   -5.2857   -5.0093 H         1 <0>         0.0945
     40 H11         6.7827   -6.0218   -2.6634 H         1 <0>         0.0389
     41 H12         7.0826   -7.7072   -3.1511 H         1 <0>         0.0515
@<TRIPOS>BOND
     1    1    6 ar
     2    1    2 ar
     3    1   31 1
     4    2    3 ar
     5    2   32 1
     6    3    4 ar
     7    3   33 1
     8    4    5 ar
     9    4   30 1
    10    5    6 ar
    11    5    7 1
    12    6   34 1
    13    7   11 1
    14    7    8 2
    15    8    9 1
    16    8   35 1
    17    9   10 2
    18    9   36 1
    19   10   11 1
    20   10   12 1
    21   12   13 2
    22   12   37 1
    23   13   19 1
    24   13   14 1
    25   14   15 2
    26   14   16 am
    27   16   17 1
    28   16   20 1
    29   17   18 2
    30   17   19 1
    31   20   21 1
    32   20   22 1
    33   20   27 1
    34   22   23 1
    35   22   38 1
    36   22   39 1
    37   23   24 1
    38   23   40 1
    39   23   41 1
    40   24   25 2
    41   24   26 1
    42   27   28 2
    43   27   29 1
@<TRIPOS>MOLECULE
ZINC59000126
   42    45     0     0     0
SMALL
USER_CHARGES

@<TRIPOS>ATOM
      1 C1         -0.0167    1.3772    0.0096 C.ar      1 <0>        -0.0910
      2 C2          1.1687    2.0873    0.0021 C.ar      1 <0>        -0.2147
      3 C3          2.3836    1.4133   -0.0131 C.ar      1 <0>         0.1312
      4 C4          2.4054    0.0254   -0.0207 C.ar      1 <0>        -0.1527
      5 C5          1.2136   -0.6840   -0.0131 C.ar      1 <0>         0.2238
      6 C6          0.0021   -0.0041    0.0020 C.ar      1 <0>        -0.1844
      7 N1          1.2314   -2.0848   -0.0212 N.am      1 <0>        -0.4661
      8 C7          2.3686   -2.8879   -0.0307 C.2       1 <0>         0.1219
      9 C8          1.9663   -4.1629   -0.0355 C.2       1 <0>         0.1672
     10 N2          0.5750   -4.1684   -0.0290 N.am      1 <0>        -0.4999
     11 C9          0.1511   -2.8897   -0.0153 C.2       1 <0>         0.5974
     12 O1         -1.0108   -2.5237   -0.0019 O.2       1 <0>        -0.6467
     13 C10        -0.2803   -5.3579   -0.0316 C.3       1 <0>         0.1037
     14 C11         0.3976   -6.7158    0.1617 C.3       1 <0>        -0.1893
     15 C12        -0.1468   -6.3213   -1.2126 C.3       1 <0>        -0.1979
     16 O2          2.7736   -5.2595   -0.0454 O.3       1 <0>        -0.7724
     17 O3          3.6593   -2.4528   -0.0345 O.3       1 <0>        -0.7753
     18 N3          3.5815    2.1315   -0.0211 N.pl3     1 <0>        -1.0406
     19 S1          3.7801    3.4219    0.9976 S.o2      1 <0>         2.6968
     20 O4          5.0929    3.9177    0.7738 O.2       1 <0>        -0.9662
     21 O5          2.6238    4.2351    0.8531 O.2       1 <0>        -0.9510
     22 C13         3.7525    2.7950    2.6440 C.ar      1 <0>        -0.6703
     23 C14         2.5539    2.6965    3.3258 C.ar      1 <0>         0.0051
     24 C15         2.5315    2.2048    4.6173 C.ar      1 <0>        -0.1321
     25 C16         3.7090    1.8112    5.2278 C.ar      1 <0>         0.0198
     26 C17         4.9083    1.9100    4.5450 C.ar      1 <0>        -0.1340
     27 C18         4.9286    2.3966    3.2515 C.ar      1 <0>        -0.0028
     28 Cl1         3.6818    1.1940    6.8502 Cl        1 <0>        -0.0654
     29 H1         -0.9598    1.9032    0.0259 H         1 <0>         0.1148
     30 H2          1.1507    3.1671    0.0077 H         1 <0>         0.1397
     31 H3          3.3484   -0.5009   -0.0328 H         1 <0>         0.1769
     32 H4         -0.9262   -0.5561    0.0079 H         1 <0>         0.1506
     33 H5         -1.2725   -5.2244    0.3994 H         1 <0>         0.1048
     34 H6          1.4799   -6.7242    0.2908 H         1 <0>         0.1485
     35 H7         -0.1486   -7.4760    0.7202 H         1 <0>         0.0706
     36 H8         -1.0512   -6.8220   -1.5584 H         1 <0>         0.0769
     37 H9          0.5773   -6.0702   -1.9877 H         1 <0>         0.0912
     38 H10         4.2971    1.8744   -0.6234 H         1 <0>         0.4250
     39 H11         1.6348    3.0041    2.8492 H         1 <0>         0.1526
     40 H12         1.5952    2.1282    5.1499 H         1 <0>         0.1428
     41 H13         5.8278    1.6032    5.0212 H         1 <0>         0.1422
     42 H14         5.8641    2.4693    2.7167 H         1 <0>         0.1492
@<TRIPOS>BOND
     1    1    6 ar
     2    1    2 ar
     3    1   29 1
     4    2    3 ar
     5    2   30 1
     6    3    4 ar
     7    3   18 1
     8    4    5 ar
     9    4   31 1
    10    5    6 ar
    11    5    7 1
    12    6   32 1
    13    7   11 am
    14    7    8 1
    15    8    9 2
    16    8   17 1
    17    9   10 1
    18    9   16 1
    19   10   11 am
    20   10   13 1
    21   11   12 2
    22   13   15 1
    23   13   14 1
    24   13   33 1
    25   14   15 1
    26   14   34 1
    27   14   35 1
    28   15   36 1
    29   15   37 1
    30   18   19 1
    31   18   38 1
    32   19   20 2
    33   19   21 2
    34   19   22 1
    35   22   27 ar
    36   22   23 ar
    37   23   24 ar
    38   23   39 1
    39   24   25 ar
    40   24   40 1
    41   25   26 ar
    42   25   28 1
    43   26   27 ar
    44   26   41 1
    45   27   42 1
@<TRIPOS>MOLECULE
ZINC13059748
   30    30     0     0     0
SMALL
USER_CHARGES
4-bromo-3-[(4-hydroxy-4-oxo-butyl)sulfamoyl]benzoic acid
@<TRIPOS>ATOM
      1 C1          4.5767   -0.1551   -2.6067 C.ar      1 <0>        -0.0228
      2 C2          4.2693   -0.9432   -1.5175 C.ar      1 <0>        -0.1248
      3 C3          2.9480   -1.1450   -1.1561 C.ar      1 <0>        -0.0052
      4 C4          1.9270   -0.5576   -1.8849 C.ar      1 <0>        -0.6678
      5 C5          2.2210    0.2282   -2.9790 C.ar      1 <0>         0.0181
      6 C6          3.5521    0.4399   -3.3456 C.ar      1 <0>        -0.1175
      7 C7          3.8742    1.2854   -4.5128 C.2       1 <0>         0.4911
      8 O1          2.9808    1.8019   -5.1538 O.co2     1 <0>        -0.6186
      9 S1          0.2488   -0.8210   -1.4172 S.o2      1 <0>         2.6907
     10 O2          0.0887   -2.2232   -1.2516 O.2       1 <0>        -0.9534
     11 O3         -0.5476   -0.0645   -2.3186 O.2       1 <0>        -0.9554
     12 N1          0.0451   -0.1414    0.0792 N.pl3     1 <0>        -1.1077
     13 C8          0.1834    1.3069    0.2509 C.3       1 <0>         0.1122
     14 C9         -0.4187    1.7209    1.5951 C.3       1 <0>        -0.1002
     15 C10        -0.2743    3.2335    1.7744 C.3       1 <0>        -0.1588
     16 C11        -0.8673    3.6413    3.0984 C.2       1 <0>         0.4619
     17 O4         -1.3555    2.8076    3.8242 O.co2     1 <0>        -0.6438
     18 Br1         2.5355   -2.2266    0.3392 Br        1 <0>        -0.0413
     19 H1          5.6077    0.0012   -2.8878 H         1 <0>         0.1475
     20 H2          5.0608   -1.4043   -0.9454 H         1 <0>         0.1363
     21 H3          1.4239    0.6824   -3.5489 H         1 <0>         0.1569
     22 H4         -0.1657   -0.7023    0.8420 H         1 <0>         0.4179
     23 H5          1.2393    1.5764    0.2273 H         1 <0>         0.0627
     24 H6         -0.3406    1.8201   -0.5555 H         1 <0>         0.0790
     25 H7         -1.4746    1.4514    1.6187 H         1 <0>         0.0690
     26 H8          0.1053    1.2078    2.4014 H         1 <0>         0.0678
     27 H9          0.7816    3.5030    1.7508 H         1 <0>         0.0674
     28 H10        -0.7983    3.7466    0.9681 H         1 <0>         0.0685
     29 O5          5.1588    1.4840   -4.8666 O.co2     1 <0>        -0.7498
     30 O6         -0.8533    4.9306    3.4715 O.co2     1 <0>        -0.7796
@<TRIPOS>BOND
     1    1    6 ar
     2    1    2 ar
     3    1   19 1
     4    2    3 ar
     5    2   20 1
     6    3    4 ar
     7    3   18 1
     8    4    5 ar
     9    4    9 1
    10    5    6 ar
    11    5   21 1
    12    6    7 1
    13    7    8 2
    14    7   29 1
    15    9   10 2
    16    9   11 2
    17    9   12 1
    18   12   13 1
    19   12   22 1
    20   13   14 1
    21   13   23 1
    22   13   24 1
    23   14   15 1
    24   14   25 1
    25   14   26 1
    26   15   16 1
    27   15   27 1
    28   15   28 1
    29   16   17 2
    30   16   30 1
@<TRIPOS>MOLECULE
ZINC19877621
   42    45     0     0     0
SMALL
USER_CHARGES
2-[3-[(E)-[1-(3-fluorophenyl)-4,6-dioxo-2-thioxo-hexahydropyrimidin-5-ylidene]methyl]indol-1-yl]acetic acid
@<TRIPOS>ATOM
      1 C1          0.5686   -0.5237    4.1710 C.ar      1 <0>        -0.1439
      2 C2          0.0787   -1.5813    3.4193 C.ar      1 <0>        -0.1258
      3 C3          0.1339   -1.5492    2.0428 C.ar      1 <0>        -0.1040
      4 C4          0.6856   -0.4484    1.3951 C.ar      1 <0>         0.0972
      5 C5          1.1809    0.6199    2.1580 C.ar      1 <0>        -0.0567
      6 C6          1.1237    0.5731    3.5474 C.ar      1 <0>        -0.0913
      7 C7          1.6880    1.6093    1.1854 C.2       1 <0>        -0.2477
      8 C8          1.4613    1.0664   -0.0676 C.2       1 <0>         0.2239
      9 N1          0.8747   -0.1372    0.0630 N.pl3     1 <0>        -0.4247
     10 C9          0.4885   -1.0004   -1.0560 C.3       1 <0>         0.0503
     11 C10        -0.9603   -0.7635   -1.3964 C.2       1 <0>         0.4523
     12 O1         -1.6042    0.0435   -0.7687 O.co2     1 <0>        -0.6159
     13 O2         -1.5354   -1.4490   -2.3969 O.co2     1 <0>        -0.7615
     14 C11         2.2827    2.8546    1.4747 C.2       1 <0>         0.1574
     15 C12         3.4487    3.2348    0.8244 C.2       1 <0>        -0.3457
     16 C13         4.1961    2.2929   -0.0277 C.2       1 <0>         0.5346
     17 O3          3.8089    1.1500   -0.1846 O.3       1 <0>        -0.5088
     18 N2          5.3211    2.7318   -0.6287 N.2       1 <0>        -0.6231
     19 C14         5.7589    3.9880   -0.4641 C.2       1 <0>         0.5490
     20 S1          7.1973    4.4569   -1.2656 S.2       1 <0>        -0.7167
     21 N3          5.1304    4.8964    0.2952 N.am      1 <0>        -0.5170
     22 C15         3.9896    4.5993    0.9510 C.2       1 <0>         0.5671
     23 O4          3.4254    5.4343    1.6330 O.2       1 <0>        -0.5223
     24 C16         5.6668    6.1859    0.4047 C.ar      1 <0>         0.2029
     25 C17         5.3536    7.1523   -0.5425 C.ar      1 <0>        -0.0971
     26 C18         5.8828    8.4231   -0.4328 C.ar      1 <0>        -0.0850
     27 C19         6.7244    8.7353    0.6189 C.ar      1 <0>        -0.1563
     28 C20         7.0392    7.7747    1.5655 C.ar      1 <0>         0.1015
     29 C21         6.5074    6.5015    1.4630 C.ar      1 <0>        -0.1289
     30 F1          7.8618    8.0824    2.5921 F         1 <0>        -0.1445
     31 H1          0.5191   -0.5617    5.2492 H         1 <0>         0.1148
     32 H2         -0.3506   -2.4380    3.9175 H         1 <0>         0.1169
     33 H3         -0.2505   -2.3782    1.4671 H         1 <0>         0.1151
     34 H4          1.5051    1.3957    4.1342 H         1 <0>         0.1160
     35 H5          1.7161    1.5368   -1.0057 H         1 <0>         0.1674
     36 H6          1.1135   -0.7681   -1.9309 H         1 <0>         0.1020
     37 H7          0.6311   -2.0537   -0.7728 H         1 <0>         0.0950
     38 H8          1.8227    3.5248    2.2157 H         1 <0>         0.1319
     39 H9          4.6967    6.9098   -1.3647 H         1 <0>         0.1269
     40 H10         5.6387    9.1743   -1.1694 H         1 <0>         0.1332
     41 H11         7.1367    9.7300    0.7025 H         1 <0>         0.1312
     42 H12         6.7491    5.7533    2.2033 H         1 <0>         0.1303
@<TRIPOS>BOND
     1    1    6 ar
     2    1    2 ar
     3    1   31 1
     4    2    3 ar
     5    2   32 1
     6    3    4 ar
     7    3   33 1
     8    4    9 1
     9    4    5 ar
    10    5    6 ar
    11    5    7 1
    12    6   34 1
    13    7    8 2
    14    7   14 1
    15    8    9 1
    16    8   35 1
    17    9   10 1
    18   10   11 1
    19   10   36 1
    20   10   37 1
    21   11   12 2
    22   11   13 1
    23   14   15 2
    24   14   38 1
    25   15   22 1
    26   15   16 1
    27   16   17 1
    28   16   18 2
    29   18   19 1
    30   19   20 2
    31   19   21 1
    32   21   22 am
    33   21   24 1
    34   22   23 2
    35   24   29 ar
    36   24   25 ar
    37   25   26 ar
    38   25   39 1
    39   26   27 ar
    40   26   40 1
    41   27   28 ar
    42   27   41 1
    43   28   29 ar
    44   28   30 1
    45   29   42 1
@<TRIPOS>MOLECULE
ZINC35643822
   34    36     0     0     0
SMALL
USER_CHARGES

@<TRIPOS>ATOM
      1 C1          1.0542   -0.6647    0.1673 C.ar      1 <0>        -0.1647
      2 C2          2.2999   -0.0646    0.2002 C.ar      1 <0>        -0.0495
      3 C3          2.3698    1.3293    0.0550 C.ar      1 <0>        -0.1291
      4 C4          1.1826    2.0499   -0.1160 C.ar      1 <0>         0.1380
      5 N1          0.0219    1.4297   -0.1399 N.ar      1 <0>        -0.4859
      6 C5         -0.0722    0.1201   -0.0058 C.ar      1 <0>         0.1103
      7 C6          3.6671    2.0202    0.0826 C.2       1 <0>         0.0511
      8 C7          4.8171    1.3023    0.1196 C.2       1 <0>        -0.1999
      9 C8          6.2152    1.7676    0.2384 C.2       1 <0>         0.5338
     10 O1          6.4909    2.9499    0.3223 O.2       1 <0>        -0.4292
     11 N2          7.1508    0.8332    0.2492 N.am      1 <0>        -0.4524
     12 C9          6.8408   -0.4759    0.1563 C.2       1 <0>         0.2639
     13 S1          7.8995   -1.8213    0.1527 S.2       1 <0>        -0.2992
     14 S2          5.0586   -0.4674    0.0460 S.3       1 <0>         0.0325
     15 C10         8.4960    1.2122    0.3592 C.ar      1 <0>         0.0239
     16 C11         9.3824    0.9217   -0.6669 C.ar      1 <0>        -0.0429
     17 C12        10.7241    1.2982   -0.5614 C.ar      1 <0>        -0.1479
     18 C13        11.1711    1.9668    0.5776 C.ar      1 <0>        -0.0182
     19 C14        10.2766    2.2570    1.6071 C.ar      1 <0>        -0.1507
     20 C15         8.9354    1.8816    1.4913 C.ar      1 <0>        -0.0482
     21 C16        10.7444    2.9639    2.8151 C.2       1 <0>         0.5302
     22 O2         11.9172    3.2957    2.9136 O.co2     1 <0>        -0.6833
     23 O3          9.9591    3.2180    3.7174 O.co2     1 <0>        -0.6982
     24 C17        11.6666    0.9882   -1.6538 C.2       1 <0>         0.5305
     25 O4         11.2738    0.4014   -2.6522 O.co2     1 <0>        -0.6957
     26 O5         12.8405    1.3180   -1.5606 O.co2     1 <0>        -0.6845
     27 H1          0.9619   -1.7357    0.2713 H         1 <0>         0.1439
     28 H2          3.1952   -0.6534    0.3344 H         1 <0>         0.1421
     29 H3          1.2188    3.1234   -0.2288 H         1 <0>         0.1678
     30 H4         -1.0455   -0.3472   -0.0316 H         1 <0>         0.1605
     31 H5          3.7044    3.0995    0.0733 H         1 <0>         0.1679
     32 H6          9.0354    0.4035   -1.5487 H         1 <0>         0.1229
     33 H7         12.2074    2.2588    0.6624 H         1 <0>         0.1404
     34 H8          8.2410    2.1096    2.2865 H         1 <0>         0.1198
@<TRIPOS>BOND
     1    1    6 ar
     2    1    2 ar
     3    1   27 1
     4    2    3 ar
     5    2   28 1
     6    3    4 ar
     7    3    7 1
     8    4    5 ar
     9    4   29 1
    10    5    6 ar
    11    6   30 1
    12    7    8 2
    13    7   31 1
    14    8   14 1
    15    8    9 1
    16    9   10 2
    17    9   11 am
    18   11   12 1
    19   11   15 1
    20   12   13 2
    21   12   14 1
    22   15   20 ar
    23   15   16 ar
    24   16   17 ar
    25   16   32 1
    26   17   18 ar
    27   17   24 1
    28   18   19 ar
    29   18   33 1
    30   19   20 ar
    31   19   21 1
    32   20   34 1
    33   21   22 2
    34   21   23 1
    35   24   25 2
    36   24   26 1
@<TRIPOS>MOLECULE
ZINC38058550
   25    26     0     0     0
SMALL
USER_CHARGES

@<TRIPOS>ATOM
      1 C1         -0.0168    1.3849    0.0097 C.ar      1 <0>        -0.1806
      2 C2          1.1706    2.0901    0.0021 C.ar      1 <0>        -0.0443
      3 C3          2.3778    1.4148   -0.0135 C.ar      1 <0>        -0.1998
      4 C4          2.3998    0.0317   -0.0216 C.ar      1 <0>        -0.0278
      5 C5          1.2159   -0.6793   -0.0141 C.ar      1 <0>        -0.2649
      6 C6          0.0021   -0.0041    0.0020 C.ar      1 <0>         0.3005
      7 N1         -1.1973   -0.7204    0.0101 N.2       1 <0>        -1.0819
      8 S1         -1.1729   -2.3762    0.0010 S.o2      1 <0>         2.6530
      9 O1         -0.6285   -2.7674   -1.2520 O.2       1 <0>        -1.0277
     10 O2         -0.6038   -2.7808    1.2386 O.2       1 <0>        -1.0249
     11 C7         -2.8481   -2.9220    0.0147 C.2       1 <0>        -0.7905
     12 C8         -3.6498   -3.1798   -1.0500 C.2       1 <0>        -0.0529
     13 C9         -4.9372   -3.6007   -0.8299 C.2       1 <0>        -0.1679
     14 C10        -5.3106   -3.7273    0.5026 C.2       1 <0>        -0.1743
     15 S2         -3.8159   -3.2493    1.3484 S.3       1 <0>         0.2888
     16 C11        -6.5543   -4.1352    1.0473 C.2       1 <0>         0.5523
     17 O3         -7.4802   -4.4346    0.3033 O.co2     1 <0>        -0.6760
     18 O4         -6.7031   -4.1880    2.2621 O.co2     1 <0>        -0.6807
     19 I1          4.1764    2.4891   -0.0256 I         1 <0>        -0.1087
     20 H1         -0.9589    1.9126    0.0260 H         1 <0>         0.1199
     21 H2          1.1566    3.1700    0.0080 H         1 <0>         0.1087
     22 H3          3.3439   -0.4927   -0.0342 H         1 <0>         0.1060
     23 H4          1.2337   -1.7591   -0.0212 H         1 <0>         0.1038
     24 H5         -3.2794   -3.0550   -2.0568 H         1 <0>         0.1290
     25 H6         -5.6168   -3.8192   -1.6404 H         1 <0>         0.1408
@<TRIPOS>BOND
     1    1    6 ar
     2    1    2 ar
     3    1   20 1
     4    2    3 ar
     5    2   21 1
     6    3    4 ar
     7    3   19 1
     8    4    5 ar
     9    4   22 1
    10    5    6 ar
    11    5   23 1
    12    6    7 1
    13    7    8 1
    14    8    9 2
    15    8   10 2
    16    8   11 1
    17   11   15 1
    18   11   12 2
    19   12   13 1
    20   12   24 1
    21   13   14 2
    22   13   25 1
    23   14   15 1
    24   14   16 1
    25   16   17 2
    26   16   18 1
@<TRIPOS>MOLECULE
ZINC34872088
   36    38     0     0     0
SMALL
USER_CHARGES

@<TRIPOS>ATOM
      1 C1         -0.0184    1.5028    0.0103 C.3       1 <0>        -0.1558
      2 C2          0.0021   -0.0041    0.0020 C.ar      1 <0>         0.0130
      3 C3          0.0057   -0.6861   -1.2023 C.ar      1 <0>        -0.1696
      4 C4          0.0239   -2.0649   -1.2176 C.ar      1 <0>        -0.0412
      5 C5          0.0392   -2.7734   -0.0133 C.ar      1 <0>        -0.1695
      6 C6          0.0359   -2.0783    1.1985 C.ar      1 <0>         0.0100
      7 C7          0.0229   -0.6989    1.1983 C.ar      1 <0>        -0.6420
      8 S1          0.0254    0.1802    2.7254 S.o2      1 <0>         2.6191
      9 O1         -1.0142    1.1452    2.6401 O.2       1 <0>        -1.0279
     10 O2          0.0755   -0.7965    3.7562 O.2       1 <0>        -1.0227
     11 N1          1.4486    1.0234    2.8026 N.2       1 <0>        -1.0650
     12 C8          1.7291    1.8210    3.9164 C.ar      1 <0>         0.3249
     13 C9          0.8194    1.9082    4.9692 C.ar      1 <0>        -0.2438
     14 C10         1.0672    2.6761    6.0624 C.ar      1 <0>         0.0076
     15 C11         2.2655    3.4200    6.1726 C.ar      1 <0>        -0.0631
     16 C12         3.1702    3.3130    5.0912 C.ar      1 <0>        -0.0457
     17 C13         2.9195    2.5315    3.9901 C.ar      1 <0>        -0.1589
     18 S2          4.5024    4.3672    5.6107 S.3       1 <0>        -0.1067
     19 C14         3.7962    4.8643    7.1756 C.2       1 <0>         0.0765
     20 N2          2.6591    4.2239    7.1843 N.2       1 <0>        -0.4609
     21 C15         4.3686    5.7879    8.2198 C.3       1 <0>        -0.0443
     22 C16         0.0582   -4.2487   -0.0214 C.2       1 <0>         0.5258
     23 O3          0.0606   -4.8543   -1.0838 O.co2     1 <0>        -0.6961
     24 O4          0.0716   -4.8658    1.0343 O.co2     1 <0>        -0.6850
     25 H1          1.0042    1.8801    0.0026 H         1 <0>         0.0822
     26 H2         -0.5455    1.8639   -0.8728 H         1 <0>         0.0620
     27 H3         -0.5286    1.8543    0.9071 H         1 <0>         0.1032
     28 H4         -0.0062   -0.1372   -2.1323 H         1 <0>         0.1173
     29 H5          0.0259   -2.5959   -2.1581 H         1 <0>         0.1270
     30 H6          0.0477   -2.6194    2.1331 H         1 <0>         0.1420
     31 H7         -0.1048    1.3522    4.9144 H         1 <0>         0.1118
     32 H8          0.3387    2.7194    6.8586 H         1 <0>         0.1151
     33 H9          3.6395    2.4736    3.1872 H         1 <0>         0.1262
     34 H10         4.0530    6.8104    8.0128 H         1 <0>         0.0763
     35 H11         4.0098    5.4893    9.2049 H         1 <0>         0.0818
     36 H12         5.4569    5.7319    8.1972 H         1 <0>         0.0763
@<TRIPOS>BOND
     1    1    2 1
     2    1   25 1
     3    1   26 1
     4    1   27 1
     5    2    7 ar
     6    2    3 ar
     7    3    4 ar
     8    3   28 1
     9    4    5 ar
    10    4   29 1
    11    5    6 ar
    12    5   22 1
    13    6    7 ar
    14    6   30 1
    15    7    8 1
    16    8    9 2
    17    8   10 2
    18    8   11 1
    19   11   12 1
    20   12   17 ar
    21   12   13 ar
    22   13   14 ar
    23   13   31 1
    24   14   15 ar
    25   14   32 1
    26   15   20 1
    27   15   16 ar
    28   16   17 ar
    29   16   18 1
    30   17   33 1
    31   18   19 1
    32   19   20 2
    33   19   21 1
    34   21   34 1
    35   21   35 1
    36   21   36 1
    37   22   23 2
    38   22   24 1
@<TRIPOS>MOLECULE
ZINC09324353
   38    40     0     0     0
SMALL
USER_CHARGES
4-[5-[[3-(carboxymethyl)-2,4-dioxo-thiazolidin-5-ylidene]methyl]-2-furyl]-3-methyl-benzoic acid
@<TRIPOS>ATOM
      1 C1         -0.0692    1.0714    0.1372 C.3       1 <0>        -0.1106
      2 C2         -0.7479    1.5339    1.4006 C.ar      1 <0>        -0.0549
      3 C3         -2.0985    1.7369    1.4154 C.ar      1 <0>        -0.0906
      4 C4         -2.7292    2.1611    2.5892 C.ar      1 <0>        -0.0916
      5 C5         -1.9757    2.3877    3.7457 C.ar      1 <0>        -0.0919
      6 C6         -0.6246    2.1904    3.7300 C.ar      1 <0>        -0.1000
      7 C7          0.0060    1.7609    2.5570 C.ar      1 <0>        -0.0564
      8 C8          1.4644    1.5483    2.5395 C.2       1 <0>         0.0917
      9 C9          2.4128    2.4419    2.9852 C.2       1 <0>        -0.2225
     10 C10         3.6603    1.8453    2.7876 C.2       1 <0>        -0.1436
     11 C11         3.4253    0.6030    2.2256 C.2       1 <0>        -0.0445
     12 O1          2.0926    0.4458    2.0908 O.3       1 <0>        -0.0929
     13 C12         4.4113   -0.3403    1.8608 C.2       1 <0>         0.0753
     14 C13         4.0418   -1.5759    1.4167 C.2       1 <0>        -0.1930
     15 C14         2.6998   -2.1004    1.1078 C.2       1 <0>         0.5388
     16 O2          1.7016   -1.4144    1.2322 O.2       1 <0>        -0.4264
     17 N1          2.6332   -3.3527    0.6885 N.am      1 <0>        -0.5481
     18 C15         3.7414   -4.1093    0.5517 C.2       1 <0>         0.5715
     19 O3          3.8269   -5.2643    0.1799 O.2       1 <0>        -0.4276
     20 S1          5.0532   -3.0015    1.0420 S.3       1 <0>        -0.0929
     21 C16         1.3266   -3.9315    0.3659 C.3       1 <0>         0.0492
     22 C17         1.0143   -3.6874   -1.0880 C.2       1 <0>         0.4614
     23 O4          1.8023   -3.0912   -1.7834 O.co2     1 <0>        -0.6277
     24 C18        -4.1886    2.3753    2.6062 C.2       1 <0>         0.4892
     25 O5         -4.8433    2.1785    1.6017 O.co2     1 <0>        -0.6268
     26 H1         -0.0451   -0.0181    0.1156 H         1 <0>         0.0861
     27 H2          0.9496    1.4579    0.1096 H         1 <0>         0.0565
     28 H3         -0.6210    1.4399   -0.7276 H         1 <0>         0.0632
     29 H4         -2.6800    1.5663    0.5214 H         1 <0>         0.1325
     30 H5         -2.4624    2.7191    4.6510 H         1 <0>         0.1341
     31 H6         -0.0429    2.3653    4.6229 H         1 <0>         0.1203
     32 H7          2.2273    3.4183    3.4078 H         1 <0>         0.1520
     33 H8          4.6231    2.2717    3.0274 H         1 <0>         0.1540
     34 H9          5.4578   -0.0833    1.9334 H         1 <0>         0.1716
     35 H10         1.3469   -5.0042    0.5580 H         1 <0>         0.0988
     36 H11         0.5601   -3.4659    0.9853 H         1 <0>         0.1071
     37 O6         -0.1393   -4.1323   -1.6106 O.co2     1 <0>        -0.7532
     38 O7         -4.7957    2.7893    3.7358 O.co2     1 <0>        -0.7579
@<TRIPOS>BOND
     1    1    2 1
     2    1   26 1
     3    1   27 1
     4    1   28 1
     5    2    7 ar
     6    2    3 ar
     7    3    4 ar
     8    3   29 1
     9    4    5 ar
    10    4   24 1
    11    5    6 ar
    12    5   30 1
    13    6    7 ar
    14    6   31 1
    15    7    8 1
    16    8   12 1
    17    8    9 2
    18    9   10 1
    19    9   32 1
    20   10   11 2
    21   10   33 1
    22   11   12 1
    23   11   13 1
    24   13   14 2
    25   13   34 1
    26   14   20 1
    27   14   15 1
    28   15   16 2
    29   15   17 am
    30   17   18 am
    31   17   21 1
    32   18   19 2
    33   18   20 1
    34   21   22 1
    35   21   35 1
    36   21   36 1
    37   22   23 2
    38   22   37 1
    39   24   25 2
    40   24   38 1
@<TRIPOS>MOLECULE
ZINC13346011
   35    36     0     0     0
SMALL
USER_CHARGES
(E)-3-[4-[[4-chloro-3-(trifluoromethyl)phenyl]sulfamoyl]phenyl]prop-2-enoic acid
@<TRIPOS>ATOM
      1 C1         -0.3912    1.7007    0.2842 C.ar      1 <0>        -0.1419
      2 C2          0.8936    2.1907    0.1821 C.ar      1 <0>        -0.0257
      3 C3          1.1175    3.5563    0.1589 C.ar      1 <0>        -0.6695
      4 C4          0.0556    4.4405    0.2379 C.ar      1 <0>        -0.0284
      5 C5         -1.2351    3.9661    0.3404 C.ar      1 <0>        -0.1428
      6 C6         -1.4700    2.5875    0.3591 C.ar      1 <0>        -0.0062
      7 C7         -2.8449    2.0728    0.4622 C.2       1 <0>        -0.1197
      8 C8         -3.8830    2.9315    0.5343 C.2       1 <0>        -0.1489
      9 C9         -5.2492    2.4201    0.6367 C.2       1 <0>         0.4773
     10 O1         -5.4496    1.2206    0.6569 O.co2     1 <0>        -0.6375
     11 O2         -6.2872    3.2787    0.7088 O.co2     1 <0>        -0.7653
     12 S1          2.7630    4.1725    0.0276 S.o2      1 <0>         2.6090
     13 O3          2.7255    5.5259    0.4592 O.2       1 <0>        -1.0376
     14 O4          3.6089    3.2035    0.6314 O.2       1 <0>        -1.0007
     15 N1          3.1485    4.1998   -1.5827 N.2       1 <0>        -1.0973
     16 C10         2.4369    5.0250   -2.4576 C.ar      1 <0>         0.2384
     17 C11         1.5184    4.4736   -3.3420 C.ar      1 <0>        -0.1207
     18 C12         0.8122    5.2920   -4.2012 C.ar      1 <0>        -0.0937
     19 C13         1.0276    6.6591   -4.1903 C.ar      1 <0>        -0.0499
     20 C14         1.9460    7.2104   -3.3145 C.ar      1 <0>        -0.1615
     21 C15         2.6508    6.3971   -2.4486 C.ar      1 <0>        -0.1135
     22 C16         2.1772    8.6995   -3.3049 C.3       1 <0>         0.5085
     23 F1          3.1423    9.0155   -2.3427 F         1 <0>        -0.1771
     24 F2          2.6237    9.1102   -4.5656 F         1 <0>        -0.1801
     25 F3          0.9802    9.3553   -2.9977 F         1 <0>        -0.1766
     26 Cl1         0.1436    7.6842   -5.2772 Cl        1 <0>        -0.0860
     27 H1         -0.5644    0.6348    0.3017 H         1 <0>         0.1234
     28 H2          1.7274    1.5071    0.1203 H         1 <0>         0.1292
     29 H3          0.2383    5.5047    0.2196 H         1 <0>         0.1293
     30 H4         -2.0627    4.6573    0.4017 H         1 <0>         0.1268
     31 H5         -3.0262    0.9880    0.4805 H         1 <0>         0.1292
     32 H6         -3.7017    4.0163    0.5161 H         1 <0>         0.1102
     33 H7          1.3536    3.4063   -3.3545 H         1 <0>         0.1303
     34 H8          0.0947    4.8644   -4.8859 H         1 <0>         0.1291
     35 H9          3.3678    6.8279   -1.7654 H         1 <0>         0.1397
@<TRIPOS>BOND
     1    1    6 ar
     2    1    2 ar
     3    1   27 1
     4    2    3 ar
     5    2   28 1
     6    3    4 ar
     7    3   12 1
     8    4    5 ar
     9    4   29 1
    10    5    6 ar
    11    5   30 1
    12    6    7 1
    13    7    8 2
    14    7   31 1
    15    8    9 1
    16    8   32 1
    17    9   10 2
    18    9   11 1
    19   12   13 2
    20   12   14 2
    21   12   15 1
    22   15   16 1
    23   16   21 ar
    24   16   17 ar
    25   17   18 ar
    26   17   33 1
    27   18   19 ar
    28   18   34 1
    29   19   20 ar
    30   19   26 1
    31   20   21 ar
    32   20   22 1
    33   21   35 1
    34   22   23 1
    35   22   24 1
    36   22   25 1
@<TRIPOS>MOLECULE
ZINC17107635
   28    28     0     0     0
SMALL
USER_CHARGES

@<TRIPOS>ATOM
      1 C1         -0.0184    1.5028    0.0103 C.3       1 <0>        -0.1129
      2 C2          0.0021   -0.0041    0.0020 C.ar      1 <0>        -0.0594
      3 C3          0.0057   -0.6887   -1.1989 C.ar      1 <0>        -0.1489
      4 C4          0.0245   -2.0709   -1.2065 C.ar      1 <0>        -0.0202
      5 C5          0.0400   -2.7685   -0.0132 C.ar      1 <0>        -0.6098
      6 C6          0.0373   -2.0839    1.1877 C.ar      1 <0>        -0.0202
      7 C7          0.0229   -0.7016    1.1953 C.ar      1 <0>        -0.1488
      8 S1          0.0628   -4.5303   -0.0229 S.o2      1 <0>         2.5950
      9 O1         -0.4759   -4.9503    1.2232 O.2       1 <0>        -1.0334
     10 O2         -0.4897   -4.9367   -1.2674 O.2       1 <0>        -1.0334
     11 N1          1.6509   -4.9994   -0.0343 N.2       1 <0>        -0.9576
     12 N2          1.9789   -6.3614   -0.0435 N.2       1 <0>        -0.1880
     13 C8          3.2313   -6.7314   -0.0524 C.2       1 <0>        -0.0160
     14 C9          3.5616   -8.1030   -0.0617 C.2       1 <0>         0.0436
     15 C10         4.8689   -8.4892   -0.0711 C.2       1 <0>        -0.1301
     16 C11         5.1984   -9.8574   -0.0803 C.2       1 <0>         0.4573
     17 O3          4.2322  -10.7756   -0.0799 O.co2     1 <0>        -0.6674
     18 O4          6.4767  -10.2350   -0.0895 O.co2     1 <0>        -0.7076
     19 Br1         6.2396   -7.1865   -0.0716 Br        1 <0>        -0.0710
     20 Br2         2.1909   -9.4057   -0.0612 Br        1 <0>        -0.0073
     21 H1          1.0042    1.8801    0.0026 H         1 <0>         0.0709
     22 H2         -0.5455    1.8639   -0.8728 H         1 <0>         0.0647
     23 H3         -0.5286    1.8543    0.9071 H         1 <0>         0.0647
     24 H4         -0.0064   -0.1436   -2.1312 H         1 <0>         0.1231
     25 H5          0.0266   -2.6057   -2.1448 H         1 <0>         0.1365
     26 H6          0.0491   -2.6289    2.1200 H         1 <0>         0.1365
     27 H7          0.0245   -0.1667    2.1335 H         1 <0>         0.1231
     28 H8          4.0141   -5.9874   -0.0527 H         1 <0>         0.1166
@<TRIPOS>BOND
     1    1    2 1
     2    1   21 1
     3    1   22 1
     4    1   23 1
     5    2    7 ar
     6    2    3 ar
     7    3    4 ar
     8    3   24 1
     9    4    5 ar
    10    4   25 1
    11    5    6 ar
    12    5    8 1
    13    6    7 ar
    14    6   26 1
    15    7   27 1
    16    8    9 2
    17    8   10 2
    18    8   11 1
    19   11   12 1
    20   12   13 2
    21   13   14 1
    22   13   28 1
    23   14   15 2
    24   14   20 1
    25   15   16 1
    26   15   19 1
    27   16   17 2
    28   16   18 1
@<TRIPOS>MOLECULE
ZINC22239374
   41    42     0     0     0
SMALL
USER_CHARGES

@<TRIPOS>ATOM
      1 C1          0.2590    1.5968   -0.1169 C.3       1 <0>        -0.1547
      2 C2          0.0986    0.0986   -0.0899 C.ar      1 <0>         0.0149
      3 C3          0.1158   -0.6173   -1.2743 C.ar      1 <0>        -0.1705
      4 C4         -0.0309   -1.9883   -1.2572 C.ar      1 <0>        -0.0420
      5 C5         -0.1968   -2.6548   -0.0403 C.ar      1 <0>        -0.1704
      6 C6         -0.2127   -1.9256    1.1512 C.ar      1 <0>         0.0103
      7 C7         -0.0596   -0.5551    1.1193 C.ar      1 <0>        -0.6410
      8 S1         -0.0728    0.3660    2.6213 S.o2      1 <0>         2.6221
      9 O1         -0.9787    1.4438    2.4287 O.2       1 <0>        -1.0305
     10 O2         -0.2228   -0.5763    3.6742 O.2       1 <0>        -1.0238
     11 N1          1.4308    1.0372    2.7973 N.2       1 <0>        -1.0721
     12 C8          1.7159    1.8317    3.9128 C.ar      1 <0>         0.3234
     13 C9          0.7396    2.0530    4.8758 C.ar      1 <0>        -0.2441
     14 C10         1.0211    2.8370    5.9765 C.ar      1 <0>        -0.0283
     15 C11         2.2803    3.4045    6.1211 C.ar      1 <0>         0.0098
     16 C12         3.2561    3.1838    5.1586 C.ar      1 <0>        -0.0450
     17 C13         2.9768    2.3945    4.0605 C.ar      1 <0>        -0.2520
     18 C14         4.0381    2.1494    3.0190 C.3       1 <0>         0.5337
     19 F1          5.2130    2.8148    3.3851 F         1 <0>        -0.2071
     20 F2          4.2899    0.7766    2.9239 F         1 <0>        -0.1744
     21 F3          3.5966    2.6295    1.7814 F         1 <0>        -0.1780
     22 N2          2.5659    4.2005    7.2387 N.am      1 <0>        -0.6569
     23 C15         1.9940    3.9235    8.4273 C.2       1 <0>         0.4961
     24 O3          1.3084    2.9309    8.5537 O.2       1 <0>        -0.5342
     25 C16         2.2064    4.8469    9.5992 C.3       1 <0>        -0.1656
     26 C17        -0.3549   -4.1214   -0.0139 C.2       1 <0>         0.5262
     27 O4         -0.3409   -4.7568   -1.0587 O.co2     1 <0>        -0.6972
     28 O5         -0.4999   -4.7017    1.0528 O.co2     1 <0>        -0.6855
     29 H1          1.3169    1.8502   -0.0484 H         1 <0>         0.0839
     30 H2         -0.1489    1.9892   -1.0484 H         1 <0>         0.0598
     31 H3         -0.2749    2.0347    0.7265 H         1 <0>         0.1032
     32 H4          0.2441   -0.1009   -2.2141 H         1 <0>         0.1162
     33 H5         -0.0179   -2.5457   -2.1822 H         1 <0>         0.1259
     34 H6         -0.3406   -2.4342    2.0954 H         1 <0>         0.1411
     35 H7         -0.2398    1.6120    4.7632 H         1 <0>         0.1115
     36 H8          0.2619    3.0094    6.7251 H         1 <0>         0.1211
     37 H9          4.2351    3.6258    5.2709 H         1 <0>         0.1201
     38 H10         3.1752    4.9508    7.1569 H         1 <0>         0.4000
     39 H11         2.8448    5.6770    9.2966 H         1 <0>         0.0725
     40 H12         1.2445    5.2326    9.9368 H         1 <0>         0.0909
     41 H13         2.6836    4.2990   10.4117 H         1 <0>         0.0904
@<TRIPOS>BOND
     1    1    2 1
     2    1   29 1
     3    1   30 1
     4    1   31 1
     5    2    7 ar
     6    2    3 ar
     7    3    4 ar
     8    3   32 1
     9    4    5 ar
    10    4   33 1
    11    5    6 ar
    12    5   26 1
    13    6    7 ar
    14    6   34 1
    15    7    8 1
    16    8    9 2
    17    8   10 2
    18    8   11 1
    19   11   12 1
    20   12   17 ar
    21   12   13 ar
    22   13   14 ar
    23   13   35 1
    24   14   15 ar
    25   14   36 1
    26   15   16 ar
    27   15   22 1
    28   16   17 ar
    29   16   37 1
    30   17   18 1
    31   18   19 1
    32   18   20 1
    33   18   21 1
    34   22   23 am
    35   22   38 1
    36   23   24 2
    37   23   25 1
    38   25   39 1
    39   25   40 1
    40   25   41 1
    41   26   27 2
    42   26   28 1
@<TRIPOS>MOLECULE
ZINC59109160
   37    40     0     0     0
SMALL
USER_CHARGES

@<TRIPOS>ATOM
      1 C1         -0.0595    1.4163   -0.5060 C.ar      1 <0>        -0.1098
      2 C2          1.1152    2.1205   -0.6675 C.ar      1 <0>        -0.0219
      3 C3          2.3335    1.4971   -0.4616 C.ar      1 <0>        -0.6205
      4 C4          2.3828    0.1641   -0.0930 C.ar      1 <0>        -0.0273
      5 C5          1.2162   -0.5528    0.0718 C.ar      1 <0>        -0.1224
      6 C6         -0.0176    0.0702   -0.1335 C.ar      1 <0>         0.0154
      7 C7         -1.2701   -0.6898    0.0418 C.2       1 <0>         0.0445
      8 C8         -1.3621   -2.0141    0.4103 C.2       1 <0>        -0.2059
      9 C9         -2.7203   -2.3314    0.4582 C.2       1 <0>        -0.1666
     10 C10        -3.4126   -1.1811    0.1148 C.2       1 <0>        -0.0032
     11 O1         -2.5131   -0.2039   -0.1259 O.3       1 <0>        -0.0743
     12 C11        -4.8123   -1.0524    0.0360 C.2       1 <0>         0.0433
     13 C12        -5.3719    0.1063   -0.4637 C.2       1 <0>        -0.1740
     14 C13        -4.7516    1.2049   -1.1213 C.2       1 <0>         0.4670
     15 O2         -3.4163    1.2161   -1.3408 O.3       1 <0>        -0.5305
     16 N1         -5.4958    2.1954   -1.5061 N.2       1 <0>        -0.6159
     17 C14        -6.8220    2.2035   -1.2983 C.2       1 <0>         0.3918
     18 S1         -7.9714    3.3993   -1.7227 S.2       1 <0>        -0.5458
     19 S2         -7.0791    0.6399   -0.4713 S.3       1 <0>        -0.1680
     20 S3          3.8292    2.4048   -0.6703 S.o2      1 <0>         2.6396
     21 O3          4.8462    1.4529   -0.9510 O.2       1 <0>        -1.0125
     22 O4          3.5313    3.4824   -1.5474 O.2       1 <0>        -1.0082
     23 N2          4.2024    3.0776    0.7962 N.2       1 <0>        -1.0289
     24 C15         5.3415    3.8555    0.9321 C.2       1 <0>         0.4052
     25 N3          6.2315    4.1698    0.0149 N.2       1 <0>        -0.6679
     26 C16         7.2725    4.9294    0.3069 C.2       1 <0>         0.1029
     27 C17         7.3779    5.3651    1.5852 C.2       1 <0>        -0.3530
     28 S4          5.9185    4.6338    2.3082 S.3       1 <0>         0.0063
     29 H1         -1.0096    1.9053   -0.6626 H         1 <0>         0.1469
     30 H2          1.0844    3.1609   -0.9557 H         1 <0>         0.1414
     31 H3          3.3371   -0.3161    0.0657 H         1 <0>         0.1408
     32 H4          1.2561   -1.5932    0.3588 H         1 <0>         0.1314
     33 H5         -0.5390   -2.6807    0.6215 H         1 <0>         0.1516
     34 H6         -3.1493   -3.2891    0.7134 H         1 <0>         0.1538
     35 H7         -5.4484   -1.8602    0.3666 H         1 <0>         0.1623
     36 H8          8.0070    5.1911   -0.4404 H         1 <0>         0.1438
     37 H9          8.1345    5.9867    2.0407 H         1 <0>         0.1685
@<TRIPOS>BOND
     1    1    6 ar
     2    1    2 ar
     3    1   29 1
     4    2    3 ar
     5    2   30 1
     6    3    4 ar
     7    3   20 1
     8    4    5 ar
     9    4   31 1
    10    5    6 ar
    11    5   32 1
    12    6    7 1
    13    7   11 1
    14    7    8 2
    15    8    9 1
    16    8   33 1
    17    9   10 2
    18    9   34 1
    19   10   11 1
    20   10   12 1
    21   12   13 2
    22   12   35 1
    23   13   19 1
    24   13   14 1
    25   14   15 1
    26   14   16 2
    27   16   17 1
    28   17   18 2
    29   17   19 1
    30   20   21 2
    31   20   22 2
    32   20   23 1
    33   23   24 1
    34   24   28 1
    35   24   25 2
    36   25   26 1
    37   26   27 2
    38   26   36 1
    39   27   28 1
    40   27   37 1
@<TRIPOS>MOLECULE
ZINC13233745
   44    46     0     0     0
SMALL
USER_CHARGES
2-[(3-carboxy-4,6-dimethyl-2-pyridyl)sulfanylmethyl]-1-ethyl-benzimidazole-5-carboxylic acid
@<TRIPOS>ATOM
      1 C1          0.4418    8.7235   -1.3993 C.3       1 <0>        -0.1784
      2 C2          0.7710    8.3152    0.0380 C.3       1 <0>         0.1099
      3 N1          1.6792    7.1658    0.0232 N.pl3     1 <0>        -0.4834
      4 C3          1.3136    5.8374    0.0199 C.ar      1 <0>         0.0593
      5 C4          0.0911    5.1742    0.0285 C.ar      1 <0>        -0.1392
      6 C5          0.0511    3.8107    0.0162 C.ar      1 <0>        -0.0486
      7 C6          1.2382    3.0652    0.0067 C.ar      1 <0>        -0.1304
      8 C7          2.4707    3.7119   -0.0016 C.ar      1 <0>        -0.0247
      9 C8          2.5149    5.1050    0.0050 C.ar      1 <0>         0.0313
     10 N2          3.5294    6.0089    0.0000 N.2       1 <0>        -0.4681
     11 C9          3.0392    7.2136    0.0107 C.2       1 <0>         0.2762
     12 C10         3.8583    8.4786    0.0087 C.3       1 <0>        -0.0360
     13 S1          4.1698    8.9928   -1.6986 S.3       1 <0>         0.0090
     14 C11         5.1172   10.4504   -1.4110 C.ar      1 <0>         0.1241
     15 C12         5.5961   11.2004   -2.5008 C.ar      1 <0>        -0.1179
     16 C13         6.3421   12.3575   -2.2463 C.ar      1 <0>        -0.0187
     17 C14         6.5848   12.7068   -0.9299 C.ar      1 <0>        -0.1840
     18 C15         6.0850   11.9152    0.0892 C.ar      1 <0>         0.1200
     19 N3          5.3797   10.8318   -0.1697 N.ar      1 <0>        -0.4966
     20 C16         6.3514   12.2990    1.5219 C.3       1 <0>        -0.0926
     21 C17         6.8729   13.1984   -3.3786 C.3       1 <0>        -0.1099
     22 C18         5.3134   10.7792   -3.8831 C.2       1 <0>         0.5022
     23 O1          4.3138   11.1780   -4.4475 O.co2     1 <0>        -0.6210
     24 C19         1.1810    1.5908   -0.0007 C.2       1 <0>         0.4971
     25 O2          2.2088    0.9430   -0.0140 O.co2     1 <0>        -0.6322
     26 H1         -0.2339    9.5788   -1.3883 H         1 <0>         0.0723
     27 H2          1.3607    8.9932   -1.9200 H         1 <0>         0.0776
     28 H3         -0.0359    7.8896   -1.9136 H         1 <0>         0.0628
     29 H4         -0.1479    8.0456    0.5586 H         1 <0>         0.0867
     30 H5          1.2487    9.1491    0.5522 H         1 <0>         0.0873
     31 H6         -0.8287    5.7401    0.0399 H         1 <0>         0.1141
     32 H7         -0.9017    3.3021    0.0184 H         1 <0>         0.1366
     33 H8          3.3858    3.1386   -0.0134 H         1 <0>         0.1343
     34 H9          3.3137    9.2649    0.5313 H         1 <0>         0.1036
     35 H10         4.8077    8.2975    0.5126 H         1 <0>         0.1209
     36 H11         7.1606   13.5909   -0.6991 H         1 <0>         0.1279
     37 H12         7.2781   11.8327    1.8567 H         1 <0>         0.0719
     38 H13         6.4422   13.3826    1.5969 H         1 <0>         0.0684
     39 H14         5.5267   11.9593    2.1485 H         1 <0>         0.0710
     40 H15         7.8633   12.8423   -3.6623 H         1 <0>         0.0753
     41 H16         6.2009   13.1226   -4.2335 H         1 <0>         0.0769
     42 H17         6.9385   14.2384   -3.0591 H         1 <0>         0.0635
     43 O3          6.1633    9.9513   -4.5225 O.co2     1 <0>        -0.7371
     44 O4         -0.0110    0.9628    0.0073 O.co2     1 <0>        -0.7613
@<TRIPOS>BOND
     1    1    2 1
     2    1   26 1
     3    1   27 1
     4    1   28 1
     5    2    3 1
     6    2   29 1
     7    2   30 1
     8    3   11 1
     9    3    4 1
    10    4    9 ar
    11    4    5 ar
    12    5    6 ar
    13    5   31 1
    14    6    7 ar
    15    6   32 1
    16    7    8 ar
    17    7   24 1
    18    8    9 ar
    19    8   33 1
    20    9   10 1
    21   10   11 2
    22   11   12 1
    23   12   13 1
    24   12   34 1
    25   12   35 1
    26   13   14 1
    27   14   19 ar
    28   14   15 ar
    29   15   16 ar
    30   15   22 1
    31   16   17 ar
    32   16   21 1
    33   17   18 ar
    34   17   36 1
    35   18   19 ar
    36   18   20 1
    37   20   37 1
    38   20   38 1
    39   20   39 1
    40   21   40 1
    41   21   41 1
    42   21   42 1
    43   22   23 2
    44   22   43 1
    45   24   25 2
    46   24   44 1
@<TRIPOS>MOLECULE
ZINC19898774
   50    53     0     0     0
SMALL
USER_CHARGES
4-[(2R)-2-(1,3-benzodioxol-5-yl)-4-hydroxy-3-(4-methylbenzoyl)-5-oxo-2H-pyrrol-1-yl]butanoic acid
@<TRIPOS>ATOM
      1 C1          1.8943   -4.9181    3.5614 C.3       1 <0>        -0.1123
      2 C2          2.0932   -3.4449    3.3137 C.ar      1 <0>        -0.0813
      3 C3          1.6907   -2.5257    4.2667 C.ar      1 <0>        -0.1393
      4 C4          1.8705   -1.1760    4.0469 C.ar      1 <0>        -0.0729
      5 C5          2.4599   -0.7378    2.8591 C.ar      1 <0>        -0.1367
      6 C6          2.8584   -1.6705    1.8992 C.ar      1 <0>        -0.0587
      7 C7          2.6779   -3.0175    2.1344 C.ar      1 <0>        -0.1390
      8 C8          2.6554    0.7076    2.6163 C.2       1 <0>         0.5046
      9 O1          2.3964    1.5120    3.4915 O.2       1 <0>        -0.4756
     10 C9          3.1613    1.1713    1.3210 C.2       1 <0>        -0.5018
     11 C10         4.3494    1.7767    1.0881 C.2       1 <0>         0.2681
     12 C11         4.4647    2.0811   -0.3540 C.2       1 <0>         0.5089
     13 O2          5.4167    2.6242   -0.8780 O.2       1 <0>        -0.5361
     14 N1          3.3596    1.6673   -1.0003 N.am      1 <0>        -0.6074
     15 C12         2.4567    1.0667   -0.0115 C.3       1 <0>         0.2695
     16 H1          2.2387    0.0240   -0.2858 H         1 <0>         0.0689
     17 C13         1.1552    1.8253    0.0298 C.ar      1 <0>        -0.0683
     18 C14         1.1634    3.2051    0.1160 C.ar      1 <0>        -0.0601
     19 C15        -0.0279    3.9054    0.1536 C.ar      1 <0>        -0.0872
     20 C16        -1.2339    3.2252    0.1045 C.ar      1 <0>         0.0218
     21 C17        -1.2421    1.8356    0.0125 C.ar      1 <0>         0.0197
     22 C18        -0.0444    1.1400   -0.0191 C.ar      1 <0>        -0.0962
     23 O3         -2.5380    1.4086   -0.0269 O.3       1 <0>        -0.3177
     24 C19        -3.3149    2.5698   -0.3752 C.3       1 <0>         0.2103
     25 O4         -2.5247    3.6687    0.1251 O.3       1 <0>        -0.3095
     26 C20         3.1031    1.7939   -2.4371 C.3       1 <0>         0.1341
     27 C21         2.4016    3.1250   -2.7145 C.3       1 <0>        -0.1201
     28 C22         2.1336    3.2572   -4.2151 C.3       1 <0>        -0.1532
     29 C23         1.4427    4.5683   -4.4884 C.2       1 <0>         0.4611
     30 O5          1.1904    5.3199   -3.5765 O.co2     1 <0>        -0.6345
     31 O6          1.1074    4.9012   -5.7448 O.co2     1 <0>        -0.7886
     32 O7          5.2828    2.0584    2.0258 O.3       1 <0>        -0.6606
     33 H2          1.4193   -5.0640    4.5428 H         1 <0>         0.0606
     34 H3          2.8692   -5.4273    3.5466 H         1 <0>         0.0661
     35 H4          1.2492   -5.3382    2.7757 H         1 <0>         0.0665
     36 H5          1.2350   -2.8660    5.1849 H         1 <0>         0.1174
     37 H6          1.5566   -0.4598    4.7918 H         1 <0>         0.1271
     38 H7          3.3107   -1.3381    0.9765 H         1 <0>         0.1362
     39 H8          2.9894   -3.7402    1.3947 H         1 <0>         0.1200
     40 H9          2.1026    3.7370    0.1536 H         1 <0>         0.1333
     41 H10        -0.0184    4.9832    0.2209 H         1 <0>         0.1323
     42 H11        -0.0479    0.0621   -0.0865 H         1 <0>         0.1282
     43 H12        -3.4439    2.6107   -1.4668 H         1 <0>         0.0786
     44 H13        -4.3010    2.5098    0.1085 H         1 <0>         0.1227
     45 H14         4.0569    1.7611   -2.9841 H         1 <0>         0.0752
     46 H15         2.4611    0.9648   -2.7694 H         1 <0>         0.0697
     47 H16         1.4479    3.1578   -2.1674 H         1 <0>         0.0711
     48 H17         3.0436    3.9541   -2.3822 H         1 <0>         0.0639
     49 H18         3.0873    3.2243   -4.7622 H         1 <0>         0.0616
     50 H19         1.4915    2.4281   -4.5474 H         1 <0>         0.0598
@<TRIPOS>BOND
     1    1    2 1
     2    1   33 1
     3    1   34 1
     4    1   35 1
     5    2    7 ar
     6    2    3 ar
     7    3    4 ar
     8    3   36 1
     9    4    5 ar
    10    4   37 1
    11    5    6 ar
    12    5    8 1
    13    6    7 ar
    14    6   38 1
    15    7   39 1
    16    8    9 2
    17    8   10 1
    18   10   15 1
    19   10   11 2
    20   11   12 1
    21   11   32 1
    22   12   13 2
    23   12   14 am
    24   14   15 1
    25   14   26 1
    26   15   16 1
    27   15   17 1
    28   17   22 ar
    29   17   18 ar
    30   18   19 ar
    31   18   40 1
    32   19   20 ar
    33   19   41 1
    34   20   25 1
    35   20   21 ar
    36   21   22 ar
    37   21   23 1
    38   22   42 1
    39   23   24 1
    40   24   25 1
    41   24   43 1
    42   24   44 1
    43   26   27 1
    44   26   45 1
    45   26   46 1
    46   27   28 1
    47   27   47 1
    48   27   48 1
    49   28   29 1
    50   28   49 1
    51   28   50 1
    52   29   30 2
    53   29   31 1
@<TRIPOS>MOLECULE
ZINC35183094
   38    39     0     0     0
SMALL
USER_CHARGES

@<TRIPOS>ATOM
      1 C1         -0.0184    1.5028    0.0103 C.3       1 <0>        -0.1107
      2 C2          0.0021   -0.0041    0.0020 C.ar      1 <0>        -0.0657
      3 C3          0.0057   -0.6887   -1.1989 C.ar      1 <0>        -0.1499
      4 C4          0.0245   -2.0709   -1.2065 C.ar      1 <0>        -0.0226
      5 C5          0.0400   -2.7685   -0.0132 C.ar      1 <0>        -0.6044
      6 C6          0.0373   -2.0839    1.1877 C.ar      1 <0>        -0.0226
      7 C7          0.0229   -0.7016    1.1953 C.ar      1 <0>        -0.1498
      8 S1          0.0628   -4.5303   -0.0229 S.o2      1 <0>         2.5892
      9 O1         -0.4759   -4.9503    1.2232 O.2       1 <0>        -1.0395
     10 O2         -0.4897   -4.9367   -1.2674 O.2       1 <0>        -1.0395
     11 N1          1.6509   -4.9994   -0.0343 N.2       1 <0>        -0.9859
     12 N2          1.9789   -6.3614   -0.0435 N.2       1 <0>        -0.1889
     13 C8          3.2232   -6.7290   -0.0524 C.2       1 <0>         0.0302
     14 C9          3.5685   -8.1625   -0.0621 C.ar      1 <0>        -0.1247
     15 C10         4.9075   -8.5620   -0.0659 C.ar      1 <0>        -0.0300
     16 C11         5.2265   -9.9036   -0.0750 C.ar      1 <0>        -0.1697
     17 C12         4.2254  -10.8596   -0.0809 C.ar      1 <0>        -0.1210
     18 C13         2.8929  -10.4775   -0.0776 C.ar      1 <0>        -0.0148
     19 C14         2.5567   -9.1293   -0.0617 C.ar      1 <0>         0.3077
     20 O3          1.2509   -8.7513   -0.0523 O.3       1 <0>        -0.5919
     21 O4          1.9146  -11.4222   -0.0843 O.3       1 <0>        -0.2993
     22 C15         2.3325  -12.7887   -0.0946 C.3       1 <0>         0.0291
     23 N3          6.6459  -10.3233   -0.0790 N.pl3     1 <0>         0.0884
     24 O5          7.5225   -9.4906   -0.0743 O.2       1 <0>        -0.2460
     25 O6          6.9287  -11.4987   -0.0870 O.3       1 <0>        -0.2589
     26 H1          1.0042    1.8801    0.0026 H         1 <0>         0.0690
     27 H2         -0.5455    1.8639   -0.8728 H         1 <0>         0.0633
     28 H3         -0.5286    1.8543    0.9071 H         1 <0>         0.0633
     29 H4         -0.0064   -0.1436   -2.1312 H         1 <0>         0.1209
     30 H5          0.0266   -2.6057   -2.1448 H         1 <0>         0.1353
     31 H6          0.0491   -2.6289    2.1200 H         1 <0>         0.1353
     32 H7          0.0245   -0.1667    2.1335 H         1 <0>         0.1209
     33 H8          4.0061   -5.9850   -0.0527 H         1 <0>         0.0761
     34 H9          5.6925   -7.8203   -0.0621 H         1 <0>         0.1225
     35 H10         4.4838  -11.9082   -0.0884 H         1 <0>         0.1195
     36 H11         1.4559  -13.4367   -0.0991 H         1 <0>         0.0823
     37 H12         2.9298  -12.9793   -0.9862 H         1 <0>         0.0414
     38 H13         2.9303  -12.9925    0.7937 H         1 <0>         0.0414
@<TRIPOS>BOND
     1    1    2 1
     2    1   26 1
     3    1   27 1
     4    1   28 1
     5    2    7 ar
     6    2    3 ar
     7    3    4 ar
     8    3   29 1
     9    4    5 ar
    10    4   30 1
    11    5    6 ar
    12    5    8 1
    13    6    7 ar
    14    6   31 1
    15    7   32 1
    16    8    9 2
    17    8   10 2
    18    8   11 1
    19   11   12 1
    20   12   13 2
    21   13   14 1
    22   13   33 1
    23   14   19 ar
    24   14   15 ar
    25   15   16 ar
    26   15   34 1
    27   16   17 ar
    28   16   23 1
    29   17   18 ar
    30   17   35 1
    31   18   19 ar
    32   18   21 1
    33   19   20 1
    34   21   22 1
    35   22   36 1
    36   22   37 1
    37   22   38 1
    38   23   24 2
    39   23   25 1
@<TRIPOS>MOLECULE
ZINC13448852
   48    49     0     0     0
SMALL
USER_CHARGES

@<TRIPOS>ATOM
      1 C1         -0.0127    1.0858    0.0080 C.3       1 <0>        -0.0910
      2 C2         -0.7416    1.5850   -1.2129 C.ar      1 <0>         0.1573
      3 C3         -2.1064    1.7992   -1.1728 C.ar      1 <0>        -0.2704
      4 C4         -2.7418    2.2620   -2.3247 C.ar      1 <0>         0.4446
      5 O1         -4.0784    2.4858   -2.3293 O.3       1 <0>        -0.6926
      6 N1         -2.0193    2.4807   -3.4162 N.ar      1 <0>        -0.6198
      7 C5         -0.7117    2.2634   -3.4154 C.ar      1 <0>         0.3072
      8 N2         -0.0804    1.8286   -2.3343 N.ar      1 <0>        -0.5845
      9 S1          0.2107    2.5664   -4.8858 S.3       1 <0>        -0.0028
     10 C6         -1.0336    3.1415   -6.0738 C.3       1 <0>        -0.0982
     11 H1         -1.5699    3.9930   -5.6547 H         1 <0>         0.1133
     12 C7         -2.0214    2.0102   -6.3657 C.3       1 <0>        -0.1376
     13 C8         -0.3531    3.5566   -7.3527 C.2       1 <0>         0.5433
     14 O2          0.7236    3.0828   -7.6481 O.2       1 <0>        -0.5268
     15 N3         -0.9409    4.4542   -8.1683 N.am      1 <0>        -0.7271
     16 C9         -0.2793    4.8577   -9.4115 C.3       1 <0>         0.1477
     17 C10         0.7085    5.9891   -9.1197 C.3       1 <0>        -0.1324
     18 C11         1.3994    6.4105  -10.4181 C.3       1 <0>        -0.1158
     19 C12         0.3499    6.8956  -11.4202 C.3       1 <0>        -0.1212
     20 C13        -0.6379    5.7642  -11.7120 C.3       1 <0>        -0.1143
     21 C14        -1.3288    5.3428  -10.4136 C.3       1 <0>        -0.1277
     22 C15        -2.8905    1.5379    0.0873 C.3       1 <0>        -0.0160
     23 C16        -2.9300    2.8100    0.9364 C.3       1 <0>        -0.1651
     24 C17        -3.7141    2.5488    2.1966 C.2       1 <0>         0.4942
     25 O3         -4.1966    1.4472    2.3970 O.co2     1 <0>        -0.7030
     26 O4         -3.8659    3.4390    3.0157 O.co2     1 <0>        -0.7221
     27 H2          0.0021   -0.0041    0.0020 H         1 <0>         0.0634
     28 H3          1.0099    1.4631    0.0003 H         1 <0>         0.0607
     29 H4         -0.5229    1.4373    0.9048 H         1 <0>         0.0746
     30 H5         -1.4851    1.1587   -6.7847 H         1 <0>         0.0583
     31 H6         -2.5136    1.7100   -5.4406 H         1 <0>         0.1024
     32 H7         -2.7691    2.3558   -7.0795 H         1 <0>         0.0537
     33 H8         -1.8020    4.8332   -7.9320 H         1 <0>         0.4023
     34 H9          0.2569    4.0063   -9.8306 H         1 <0>         0.0868
     35 H10         0.1722    6.8405   -8.7006 H         1 <0>         0.0639
     36 H11         1.4562    5.6435   -8.4058 H         1 <0>         0.0708
     37 H12         2.1031    7.2165  -10.2102 H         1 <0>         0.0627
     38 H13         1.9357    5.5591  -10.8372 H         1 <0>         0.0633
     39 H14        -0.1864    7.7470  -11.0011 H         1 <0>         0.0620
     40 H15         0.8421    7.1958  -12.3452 H         1 <0>         0.0601
     41 H16        -1.3856    6.1098  -12.4259 H         1 <0>         0.0641
     42 H17        -0.1016    4.9128  -12.1311 H         1 <0>         0.0639
     43 H18        -2.0325    4.5368  -10.6215 H         1 <0>         0.0693
     44 H19        -1.8651    6.1942   -9.9945 H         1 <0>         0.0684
     45 H20        -3.9072    1.2425   -0.1720 H         1 <0>         0.0639
     46 H21        -2.4129    0.7380    0.6532 H         1 <0>         0.0477
     47 H22        -1.9133    3.1055    1.1958 H         1 <0>         0.0443
     48 H23        -3.4076    3.6099    0.3706 H         1 <0>         0.0543
@<TRIPOS>BOND
     1    1   27 1
     2    1   28 1
     3    1   29 1
     4    1    2 1
     5    2    3 ar
     6    2    8 ar
     7    3    4 ar
     8    3   22 1
     9    4    6 ar
    10    4    5 1
    11    6    7 ar
    12    7    8 ar
    13    7    9 1
    14    9   10 1
    15   10   11 1
    16   10   12 1
    17   10   13 1
    18   12   30 1
    19   12   31 1
    20   12   32 1
    21   13   14 2
    22   13   15 am
    23   15   16 1
    24   15   33 1
    25   16   21 1
    26   16   17 1
    27   16   34 1
    28   17   18 1
    29   17   35 1
    30   17   36 1
    31   18   19 1
    32   18   37 1
    33   18   38 1
    34   19   20 1
    35   19   39 1
    36   19   40 1
    37   20   21 1
    38   20   41 1
    39   20   42 1
    40   21   43 1
    41   21   44 1
    42   22   23 1
    43   22   45 1
    44   22   46 1
    45   23   24 1
    46   23   47 1
    47   23   48 1
    48   24   25 2
    49   24   26 1
@<TRIPOS>MOLECULE
ZINC32962126
   45    46     0     0     0
SMALL
USER_CHARGES

@<TRIPOS>ATOM
      1 C1         -0.0187    1.5258    0.0104 C.3       1 <0>        -0.1474
      2 C2          0.0021   -0.0041    0.0020 C.3       1 <0>        -0.1213
      3 C3          0.7421   -0.5109    1.2415 C.3       1 <0>        -0.1426
      4 C4          0.7628   -2.0407    1.2331 C.3       1 <0>         0.1725
      5 N1          1.4714   -2.5260    2.4200 N.pl3     1 <0>        -0.6326
      6 C5          0.7331   -2.7871    3.6582 C.3       1 <0>         0.1607
      7 C6          0.2502   -4.2388    3.6676 C.3       1 <0>        -0.1401
      8 C7          2.8439   -2.7388    2.3713 C.ar      1 <0>         0.1017
      9 C8          3.7206   -1.7134    2.7037 C.ar      1 <0>        -0.0942
     10 C9          5.0825   -1.9232    2.6552 C.ar      1 <0>        -0.2600
     11 C10         5.5913   -3.1619    2.2742 C.ar      1 <0>         0.2499
     12 C11         4.7337   -4.1938    1.9406 C.ar      1 <0>        -0.1344
     13 C12         3.3496   -3.9929    1.9916 C.ar      1 <0>        -0.1121
     14 C13         2.4302   -5.0866    1.6443 C.2       1 <0>         0.5201
     15 O1          2.8746   -6.1778    1.3140 O.co2     1 <0>        -0.7113
     16 O2          1.2208   -4.9056    1.6857 O.co2     1 <0>        -0.6686
     17 N2          6.9762   -3.3632    2.2283 N.2       1 <0>        -1.0851
     18 S1          8.0059   -2.1291    2.6268 S.o2      1 <0>         2.6119
     19 O3          7.8417   -1.1263    1.6334 O.2       1 <0>        -1.0292
     20 O4          7.8125   -1.8695    4.0104 O.2       1 <0>        -1.0296
     21 C14         9.6479   -2.7445    2.4545 C.2       1 <0>        -0.6459
     22 C15        10.4578   -2.7235    1.3677 C.2       1 <0>        -0.0580
     23 C16        11.7232   -3.2711    1.4641 C.2       1 <0>        -0.1756
     24 C17        12.1170   -3.8130    2.6425 C.2       1 <0>        -0.1825
     25 S2         10.6796   -3.5504    3.6683 S.3       1 <0>         0.1338
     26 H1          1.0039    1.9031    0.0027 H         1 <0>         0.0517
     27 H2         -0.5459    1.8868   -0.8726 H         1 <0>         0.0438
     28 H3         -0.5289    1.8773    0.9072 H         1 <0>         0.0478
     29 H4         -1.0205   -0.3814    0.0098 H         1 <0>         0.0550
     30 H5          0.5123   -0.3556   -0.8948 H         1 <0>         0.0589
     31 H6          1.7647   -0.1336    1.2338 H         1 <0>         0.0596
     32 H7          0.2319   -0.1594    2.1383 H         1 <0>         0.0499
     33 H8         -0.2598   -2.4180    1.2409 H         1 <0>         0.0469
     34 H9          1.2730   -2.3923    0.3363 H         1 <0>         0.0501
     35 H10         1.3865   -2.6159    4.5137 H         1 <0>         0.0391
     36 H11        -0.1255   -2.1182    3.7171 H         1 <0>         0.0334
     37 H12        -0.2991   -4.4330    4.5888 H         1 <0>        -0.0020
     38 H13        -0.4032   -4.4100    2.8121 H         1 <0>         0.0620
     39 H14         1.1088   -4.9077    3.6086 H         1 <0>         0.0728
     40 H15         3.3343   -0.7494    3.0003 H         1 <0>         0.0915
     41 H16         5.7587   -1.1219    2.9141 H         1 <0>         0.0855
     42 H17         5.1308   -5.1538    1.6453 H         1 <0>         0.1143
     43 H18        10.1192   -2.2857    0.4403 H         1 <0>         0.1423
     44 H19        12.3882   -3.2676    0.6131 H         1 <0>         0.1326
     45 H20        13.0577   -4.2789    2.8962 H         1 <0>         0.1847
@<TRIPOS>BOND
     1    1    2 1
     2    1   26 1
     3    1   27 1
     4    1   28 1
     5    2    3 1
     6    2   29 1
     7    2   30 1
     8    3    4 1
     9    3   31 1
    10    3   32 1
    11    4    5 1
    12    4   33 1
    13    4   34 1
    14    5    6 1
    15    5    8 1
    16    6    7 1
    17    6   35 1
    18    6   36 1
    19    7   37 1
    20    7   38 1
    21    7   39 1
    22    8   13 ar
    23    8    9 ar
    24    9   10 ar
    25    9   40 1
    26   10   11 ar
    27   10   41 1
    28   11   12 ar
    29   11   17 1
    30   12   13 ar
    31   12   42 1
    32   13   14 1
    33   14   15 2
    34   14   16 1
    35   17   18 1
    36   18   19 2
    37   18   20 2
    38   18   21 1
    39   21   25 1
    40   21   22 2
    41   22   23 1
    42   22   43 1
    43   23   24 2
    44   23   44 1
    45   24   25 1
    46   24   45 1
@<TRIPOS>MOLECULE
ZINC05567743
   29    30     0     0     0
SMALL
USER_CHARGES
4-(3-hydroxy-4-nitro-phenyl)sulfanyl-3-nitro-benzoic acid
@<TRIPOS>ATOM
      1 C1         -4.5645    4.4167    0.2911 C.ar      1 <0>        -0.0076
      2 C2         -3.6097    3.4477    0.1663 C.ar      1 <0>        -0.1374
      3 C3         -3.9737    2.1033    0.1809 C.ar      1 <0>        -0.0500
      4 C4         -5.3125    1.7423    0.3174 C.ar      1 <0>        -0.0511
      5 C5         -6.2712    2.7062    0.4488 C.ar      1 <0>        -0.0115
      6 C6         -5.9089    4.0576    0.4341 C.ar      1 <0>        -0.1218
      7 C7         -6.9412    5.1002    0.5694 C.2       1 <0>         0.4961
      8 O1         -8.1087    4.7868    0.6936 O.co2     1 <0>        -0.6248
      9 N1         -5.6956    0.3126    0.3258 N.pl3     1 <0>         0.0415
     10 O2         -6.8658   -0.0037    0.4451 O.2       1 <0>        -0.1823
     11 O3         -4.8407   -0.5477    0.2134 O.3       1 <0>        -0.1606
     12 S1         -2.7392    0.8565    0.0190 S.3       1 <0>         0.0867
     13 C8         -1.2229    1.7540    0.0298 C.ar      1 <0>        -0.1018
     14 C9         -0.6206    2.0888    1.2372 C.ar      1 <0>        -0.2013
     15 C10         0.5645    2.7976    1.2452 C.ar      1 <0>        -0.0145
     16 C11         1.1578    3.1710    0.0538 C.ar      1 <0>        -0.1858
     17 C12         0.5643    2.8347   -1.1548 C.ar      1 <0>         0.3029
     18 C13        -0.6251    2.1234   -1.1677 C.ar      1 <0>        -0.1666
     19 N2          2.4280    3.9311    0.0672 N.pl3     1 <0>         0.0678
     20 O4          2.9497    4.2268    1.1273 O.2       1 <0>        -0.2658
     21 O5          2.9514    4.2610   -0.9820 O.3       1 <0>        -0.1655
     22 H1         -4.2818    5.4590    0.2791 H         1 <0>         0.1512
     23 H2         -2.5716    3.7243    0.0559 H         1 <0>         0.1454
     24 H3         -7.3083    2.4258    0.5590 H         1 <0>         0.1584
     25 H4         -1.0821    1.7983    2.1694 H         1 <0>         0.1248
     26 H5          1.0285    3.0610    2.1842 H         1 <0>         0.1275
     27 H6         -1.0884    1.8608   -2.1074 H         1 <0>         0.1297
     28 O6         -6.5906    6.4015    0.5556 O.co2     1 <0>        -0.7450
     29 O7          1.1494    3.2023   -2.3250 O.3       1 <0>        -0.6388
@<TRIPOS>BOND
     1    1    6 ar
     2    1    2 ar
     3    1   22 1
     4    2    3 ar
     5    2   23 1
     6    3    4 ar
     7    3   12 1
     8    4    5 ar
     9    4    9 1
    10    5    6 ar
    11    5   24 1
    12    6    7 1
    13    7    8 2
    14    7   28 1
    15    9   10 2
    16    9   11 1
    17   12   13 1
    18   13   18 ar
    19   13   14 ar
    20   14   15 ar
    21   14   25 1
    22   15   16 ar
    23   15   26 1
    24   16   17 ar
    25   16   19 1
    26   17   18 ar
    27   17   29 1
    28   18   27 1
    29   19   20 2
    30   19   21 1
@<TRIPOS>MOLECULE
ZINC13278204
   42    44     0     0     0
SMALL
USER_CHARGES
2-[(5-carboxy-2-methyl-phenoxy)methyl]-1-ethyl-benzimidazole-5-carboxylic acid
@<TRIPOS>ATOM
      1 C1         -4.5901    1.0961   -2.9559 C.3       1 <0>        -0.1715
      2 C2         -3.8571    2.3480   -2.4699 C.3       1 <0>         0.1058
      3 N1         -4.2282    2.6223   -1.0795 N.pl3     1 <0>        -0.4807
      4 C3         -5.2790    3.4057   -0.6551 C.ar      1 <0>         0.0605
      5 C4         -6.2611    4.1394   -1.3122 C.ar      1 <0>        -0.1404
      6 C5         -7.1929    4.8323   -0.5965 C.ar      1 <0>        -0.0464
      7 C6         -7.1707    4.8131    0.8051 C.ar      1 <0>        -0.1298
      8 C7         -6.1953    4.0844    1.4796 C.ar      1 <0>        -0.0241
      9 C8         -5.2418    3.3753    0.7511 C.ar      1 <0>         0.0286
     10 N2         -4.1935    2.5853    1.1022 N.2       1 <0>        -0.4619
     11 C9         -3.5983    2.1501    0.0307 C.2       1 <0>         0.2651
     12 C10        -2.3906    1.2488    0.0201 C.3       1 <0>         0.1444
     13 O1         -1.2030    2.0437    0.0188 O.3       1 <0>        -0.3090
     14 C11        -0.0167    1.3806    0.0096 C.ar      1 <0>         0.1084
     15 C12         0.0021   -0.0041    0.0020 C.ar      1 <0>        -0.1675
     16 C13         1.2223   -0.6807   -0.0132 C.ar      1 <0>        -0.0821
     17 C14         2.4164    0.0435   -0.0207 C.ar      1 <0>        -0.1093
     18 C15         2.3857    1.4226   -0.0130 C.ar      1 <0>        -0.1046
     19 C16         1.1755    2.0917    0.0021 C.ar      1 <0>        -0.1199
     20 C17         1.1508    3.5985    0.0099 C.3       1 <0>        -0.0979
     21 C18         1.2510   -2.1578   -0.0219 C.2       1 <0>         0.4902
     22 O2          0.2111   -2.7855   -0.0158 O.co2     1 <0>        -0.6299
     23 C19        -8.1844    5.5670    1.5674 C.2       1 <0>         0.4964
     24 O3         -8.1667    5.5515    2.7821 O.co2     1 <0>        -0.6315
     25 H1         -4.3140    0.8920   -3.9904 H         1 <0>         0.0748
     26 H2         -4.3124    0.2470   -2.3315 H         1 <0>         0.0640
     27 H3         -5.6662    1.2574   -2.8921 H         1 <0>         0.0638
     28 H4         -4.1348    3.1971   -3.0943 H         1 <0>         0.0894
     29 H5         -2.7809    2.1867   -2.5337 H         1 <0>         0.0927
     30 H6         -6.2862    4.1602   -2.3917 H         1 <0>         0.1148
     31 H7         -7.9527    5.4000   -1.1131 H         1 <0>         0.1376
     32 H8         -6.1775    4.0686    2.5593 H         1 <0>         0.1348
     33 H9         -2.4109    0.6246   -0.8732 H         1 <0>         0.0805
     34 H10        -2.4025    0.6149    0.9067 H         1 <0>         0.0988
     35 H11        -0.9248   -0.5585    0.0075 H         1 <0>         0.1328
     36 H12         3.3633   -0.4758   -0.0322 H         1 <0>         0.1306
     37 H13         3.3098    1.9816   -0.0185 H         1 <0>         0.1221
     38 H14         1.1545    3.9566    1.0394 H         1 <0>         0.0631
     39 H15         2.0299    3.9790   -0.5103 H         1 <0>         0.0580
     40 H16         0.2502    3.9498   -0.4938 H         1 <0>         0.0646
     41 O4          2.4304   -2.8085   -0.0367 O.co2     1 <0>        -0.7551
     42 O5         -9.1297    6.2727    0.9164 O.co2     1 <0>        -0.7600
@<TRIPOS>BOND
     1    1    2 1
     2    1   25 1
     3    1   26 1
     4    1   27 1
     5    2    3 1
     6    2   28 1
     7    2   29 1
     8    3   11 1
     9    3    4 1
    10    4    9 ar
    11    4    5 ar
    12    5    6 ar
    13    5   30 1
    14    6    7 ar
    15    6   31 1
    16    7    8 ar
    17    7   23 1
    18    8    9 ar
    19    8   32 1
    20    9   10 1
    21   10   11 2
    22   11   12 1
    23   12   13 1
    24   12   33 1
    25   12   34 1
    26   13   14 1
    27   14   19 ar
    28   14   15 ar
    29   15   16 ar
    30   15   35 1
    31   16   17 ar
    32   16   21 1
    33   17   18 ar
    34   17   36 1
    35   18   19 ar
    36   18   37 1
    37   19   20 1
    38   20   38 1
    39   20   39 1
    40   20   40 1
    41   21   22 2
    42   21   41 1
    43   23   24 2
    44   23   42 1
@<TRIPOS>MOLECULE
ZINC20904711
   41    43     0     0     0
SMALL
USER_CHARGES
(2S)-2-[(5-oxo-6,7,8,9-tetrahydro-4H-[1,2,4]triazolo[4,5-a]quinazolin-1-yl)sulfanyl]hexanoic acid
@<TRIPOS>ATOM
      1 C1         -0.2474    7.2125    2.4178 C.3       1 <0>        -0.1504
      2 C2         -0.4023    5.6930    2.3289 C.3       1 <0>        -0.1234
      3 C3          0.4938    5.1534    1.2123 C.3       1 <0>        -0.1255
      4 C4          0.3388    3.6339    1.1234 C.3       1 <0>        -0.0810
      5 C5          1.2350    3.0943    0.0069 C.3       1 <0>        -0.1255
      6 H1          2.2613    3.3160    0.3349 H         1 <0>         0.0910
      7 C6          1.1765    1.5884   -0.0006 C.2       1 <0>         0.4696
      8 O1          2.1986    0.9442   -0.0139 O.co2     1 <0>        -0.6093
      9 O2         -0.0110    0.9628    0.0073 O.co2     1 <0>        -0.7661
     10 S1          0.6586    3.7298   -1.5914 S.3       1 <0>         0.0059
     11 C7          1.8621    3.1493   -2.7400 C.2       1 <0>         0.1488
     12 N1          2.9196    2.4301   -2.4516 N.2       1 <0>        -0.2497
     13 N2          3.6128    2.1776   -3.6427 N.2       1 <0>        -0.3868
     14 C8          2.9619    2.7586   -4.6212 C.2       1 <0>         0.4581
     15 N3          1.8611    3.3747   -4.0910 N.pl3     1 <0>        -0.4693
     16 C9          0.9796    4.0709   -4.8989 C.2       1 <0>         0.1446
     17 C10         1.2086    4.1530   -6.2154 C.2       1 <0>        -0.2347
     18 C11         2.3539    3.5135   -6.7714 C.2       1 <0>         0.5049
     19 O3          2.5645    3.5839   -7.9690 O.3       1 <0>        -0.6141
     20 N4          3.2039    2.8323   -5.9825 N.2       1 <0>        -0.6380
     21 C12         0.3077    4.9060   -7.1592 C.3       1 <0>        -0.0413
     22 C13        -1.0590    5.1500   -6.5231 C.3       1 <0>        -0.1240
     23 C14        -0.8384    5.7652   -5.1354 C.3       1 <0>        -0.1069
     24 C15        -0.2172    4.7002   -4.2345 C.3       1 <0>        -0.0919
     25 H2         -0.8917    7.6004    3.2206 H         1 <0>         0.0461
     26 H3         -0.5405    7.6676    1.4602 H         1 <0>         0.0533
     27 H4          0.8014    7.4620    2.6365 H         1 <0>         0.0511
     28 H5         -0.1092    5.2379    3.2865 H         1 <0>         0.0579
     29 H6         -1.4511    5.4435    2.1102 H         1 <0>         0.0607
     30 H7          0.2007    5.6085    0.2547 H         1 <0>         0.0685
     31 H8          1.5426    5.4028    1.4310 H         1 <0>         0.0594
     32 H9          0.6318    3.1788    2.0810 H         1 <0>         0.0679
     33 H10        -0.7100    3.3845    0.9046 H         1 <0>         0.0741
     34 H11         0.7633    5.8765   -7.4050 H         1 <0>         0.0636
     35 H12         0.1711    4.3211   -8.0808 H         1 <0>         0.0741
     36 H13        -1.6394    5.8390   -7.1543 H         1 <0>         0.0622
     37 H14        -1.5969    4.1948   -6.4321 H         1 <0>         0.0632
     38 H15        -0.1629    6.6292   -5.2205 H         1 <0>         0.0649
     39 H16        -1.8035    6.0937   -4.7223 H         1 <0>         0.0686
     40 H17        -0.9710    3.9262   -4.0279 H         1 <0>         0.0893
     41 H18         0.0931    5.1711   -3.2901 H         1 <0>         0.0901
@<TRIPOS>BOND
     1    1    2 1
     2    1   25 1
     3    1   26 1
     4    1   27 1
     5    2    3 1
     6    2   28 1
     7    2   29 1
     8    3    4 1
     9    3   30 1
    10    3   31 1
    11    4    5 1
    12    4   32 1
    13    4   33 1
    14    5    6 1
    15    5    7 1
    16    5   10 1
    17    7    8 2
    18    7    9 1
    19   10   11 1
    20   11   15 1
    21   11   12 2
    22   12   13 1
    23   13   14 2
    24   14   20 1
    25   14   15 1
    26   15   16 1
    27   16   24 1
    28   16   17 2
    29   17   18 1
    30   17   21 1
    31   18   19 1
    32   18   20 2
    33   21   22 1
    34   21   34 1
    35   21   35 1
    36   22   23 1
    37   22   36 1
    38   22   37 1
    39   23   24 1
    40   23   38 1
    41   23   39 1
    42   24   40 1
    43   24   41 1
@<TRIPOS>MOLECULE
ZINC15962526
   36    37     0     0     0
SMALL
USER_CHARGES

@<TRIPOS>ATOM
      1 C1         -0.0187    1.5258    0.0104 C.3       1 <0>        -0.1505
      2 C2          0.0021   -0.0041    0.0020 C.3       1 <0>         0.0613
      3 O1          0.6709   -0.4649   -1.1737 O.3       1 <0>        -0.3529
      4 C3          0.7759   -1.7985   -1.3347 C.2       1 <0>         0.5183
      5 O2          0.3122   -2.5495   -0.4999 O.2       1 <0>        -0.5338
      6 C4          1.4541   -2.3470   -2.5255 C.ar      1 <0>        -0.2103
      7 C5          1.9926   -1.4826   -3.4832 C.ar      1 <0>        -0.0424
      8 C6          2.6223   -1.9916   -4.5895 C.ar      1 <0>        -0.1455
      9 C7          2.7263   -3.3760   -4.7597 C.ar      1 <0>         0.1900
     10 C8          2.1878   -4.2406   -3.8011 C.ar      1 <0>        -0.2005
     11 C9          1.5629   -3.7307   -2.6924 C.ar      1 <0>        -0.0315
     12 N1          3.3534   -3.8838   -5.8624 N.2       1 <0>        -0.3371
     13 N2          3.4492   -5.1606   -6.0193 N.2       1 <0>        -0.1669
     14 C10         4.0741   -5.6666   -7.1182 C.ar      1 <0>        -0.1420
     15 C11         4.1785   -7.0497   -7.3011 C.ar      1 <0>         0.1050
     16 C12         4.8284   -7.5181   -8.4449 C.ar      1 <0>        -0.2419
     17 C13         5.3500   -6.5900   -9.3639 C.ar      1 <0>         0.4976
     18 N3          5.2319   -5.2897   -9.1558 N.ar      1 <0>        -0.6614
     19 C14         4.6192   -4.8054   -8.0894 C.ar      1 <0>         0.4676
     20 O3          4.5200   -3.4655   -7.9262 O.3       1 <0>        -0.6413
     21 O4          5.9817   -7.0338  -10.4756 O.3       1 <0>        -0.7075
     22 C15         4.9623   -8.9245   -8.6788 C.1       1 <0>         0.3280
     23 N4          5.0686  -10.0402   -8.8643 N.1       1 <0>        -0.5227
     24 C16         3.6052   -8.0089   -6.2900 C.3       1 <0>        -0.1133
     25 H1          1.0039    1.9031    0.0027 H         1 <0>         0.0657
     26 H2         -0.5459    1.8868   -0.8726 H         1 <0>         0.0657
     27 H3         -0.5289    1.8773    0.9072 H         1 <0>         0.0730
     28 H4          0.5293   -0.3651    0.8851 H         1 <0>         0.0618
     29 H5         -1.0205   -0.3814    0.0098 H         1 <0>         0.0618
     30 H6          1.9123   -0.4137   -3.3517 H         1 <0>         0.1246
     31 H7          3.0376   -1.3238   -5.3297 H         1 <0>         0.1312
     32 H8          2.2676   -5.3096   -3.9323 H         1 <0>         0.1297
     33 H9          1.1509   -4.3982   -1.9500 H         1 <0>         0.1182
     34 H10         2.5732   -8.2406   -6.5535 H         1 <0>         0.0701
     35 H11         4.1936   -8.9264   -6.2852 H         1 <0>         0.0569
     36 H12         3.6340   -7.5536   -5.3001 H         1 <0>         0.0751
@<TRIPOS>BOND
     1    1    2 1
     2    1   25 1
     3    1   26 1
     4    1   27 1
     5    2    3 1
     6    2   28 1
     7    2   29 1
     8    3    4 1
     9    4    5 2
    10    4    6 1
    11    6   11 ar
    12    6    7 ar
    13    7    8 ar
    14    7   30 1
    15    8    9 ar
    16    8   31 1
    17    9   10 ar
    18    9   12 1
    19   10   11 ar
    20   10   32 1
    21   11   33 1
    22   12   13 2
    23   13   14 1
    24   14   19 ar
    25   14   15 ar
    26   15   16 ar
    27   15   24 1
    28   16   17 ar
    29   16   22 1
    30   17   18 ar
    31   17   21 1
    32   18   19 ar
    33   19   20 1
    34   22   23 3
    35   24   34 1
    36   24   35 1
    37   24   36 1
@<TRIPOS>MOLECULE
ZINC54449888
   38    38     0     0     0
SMALL
USER_CHARGES

@<TRIPOS>ATOM
      1 C1         -0.1473    1.4460   -1.7200 C.3       1 <0>        -0.1521
      2 C2         -0.1164   -0.0777   -1.5838 C.3       1 <0>        -0.1256
      3 C3         -1.5326   -0.5953   -1.3242 C.3       1 <0>        -0.1200
      4 C4         -1.5018   -2.1189   -1.1880 C.3       1 <0>        -0.1151
      5 C5         -2.9180   -2.6365   -0.9284 C.3       1 <0>        -0.1322
      6 C6         -2.8871   -4.1601   -0.7921 C.3       1 <0>         0.1341
      7 N1         -4.2431   -4.6557   -0.5436 N.pl3     1 <0>        -0.7443
      8 C7         -4.4620   -5.9896   -0.3875 C.2       1 <0>         0.5485
      9 O1         -3.4325   -6.8538   -0.4616 O.3       1 <0>        -0.6564
     10 C8         -5.7535   -6.4616   -0.1508 C.2       1 <0>        -0.4605
     11 C9         -6.8486   -5.5423   -0.0720 C.1       1 <0>         0.3102
     12 N2         -7.7174   -4.8130   -0.0095 N.1       1 <0>        -0.5604
     13 C10        -5.9887   -7.8946    0.0168 C.2       1 <0>         0.4818
     14 O2         -5.0467   -8.6658    0.0560 O.2       1 <0>        -0.5137
     15 C11        -7.3691   -8.4075    0.1388 C.ar      1 <0>        -0.3143
     16 C12        -8.4396   -7.7153   -0.4459 C.ar      1 <0>        -0.0005
     17 C13        -9.7112   -8.2343   -0.3045 C.ar      1 <0>        -0.2064
     18 C14        -9.8875   -9.4178    0.4080 C.ar      1 <0>         0.4325
     19 O3        -11.1332   -9.9327    0.5505 O.3       1 <0>        -0.7001
     20 N3         -8.8556  -10.0473    0.9475 N.ar      1 <0>        -0.5838
     21 C15        -7.6260   -9.5901    0.8322 C.ar      1 <0>         0.1930
     22 Cl1       -11.0746   -7.4205   -1.0063 Cl        1 <0>        -0.1141
     23 H1          0.8616    1.8147   -1.9050 H         1 <0>         0.0495
     24 H2         -0.7938    1.7233   -2.5526 H         1 <0>         0.0522
     25 H3         -0.5317    1.8853   -0.7996 H         1 <0>         0.0522
     26 H4          0.2679   -0.5170   -2.5043 H         1 <0>         0.0602
     27 H5          0.5301   -0.3550   -0.7512 H         1 <0>         0.0602
     28 H6         -1.9170   -0.1559   -0.4037 H         1 <0>         0.0602
     29 H7         -2.1791   -0.3180   -2.1568 H         1 <0>         0.0602
     30 H8         -1.1174   -2.5583   -2.1085 H         1 <0>         0.0632
     31 H9         -0.8553   -2.3962   -0.3554 H         1 <0>         0.0631
     32 H10        -3.3023   -2.1971   -0.0079 H         1 <0>         0.0630
     33 H11        -3.5645   -2.3592   -1.7610 H         1 <0>         0.0631
     34 H12        -2.5027   -4.5995   -1.7126 H         1 <0>         0.0533
     35 H13        -2.2406   -4.4374    0.0405 H         1 <0>         0.0534
     36 H14        -4.9849   -4.0330   -0.4902 H         1 <0>         0.3869
     37 H15        -8.2735   -6.7990   -0.9928 H         1 <0>         0.1213
     38 H16        -6.8089  -10.1340    1.2828 H         1 <0>         0.1375
@<TRIPOS>BOND
     1    1    2 1
     2    1   23 1
     3    1   24 1
     4    1   25 1
     5    2    3 1
     6    2   26 1
     7    2   27 1
     8    3    4 1
     9    3   28 1
    10    3   29 1
    11    4    5 1
    12    4   30 1
    13    4   31 1
    14    5    6 1
    15    5   32 1
    16    5   33 1
    17    6    7 1
    18    6   34 1
    19    6   35 1
    20    7    8 1
    21    7   36 1
    22    8    9 1
    23    8   10 2
    24   10   11 1
    25   10   13 1
    26   11   12 3
    27   13   14 2
    28   13   15 1
    29   15   21 ar
    30   15   16 ar
    31   16   17 ar
    32   16   37 1
    33   17   18 ar
    34   17   22 1
    35   18   19 1
    36   18   20 ar
    37   20   21 ar
    38   21   38 1
@<TRIPOS>MOLECULE
ZINC13308339
   42    43     0     0     0
SMALL
USER_CHARGES
2-[5-[[2-[(2,3-dimethylphenyl)amino]-2-oxo-ethyl]sulfamoyl]-2-thienyl]acetic acid
@<TRIPOS>ATOM
      1 C1          5.9781    1.7451   -0.8791 C.3       1 <0>        -0.1154
      2 C2          4.7223    1.1210   -0.3271 C.ar      1 <0>        -0.0684
      3 C3          4.7751   -0.1255    0.2698 C.ar      1 <0>        -0.1358
      4 C4          3.6253   -0.7014    0.7775 C.ar      1 <0>        -0.1008
      5 C5          2.4197   -0.0329    0.6903 C.ar      1 <0>        -0.1328
      6 C6          2.3633    1.2187    0.0917 C.ar      1 <0>         0.1515
      7 C7          3.5192    1.7921   -0.4225 C.ar      1 <0>        -0.1164
      8 C8          3.4614    3.1475   -1.0785 C.3       1 <0>        -0.1186
      9 N1          1.1435    1.8984    0.0013 N.am      1 <0>        -0.6670
     10 C9         -0.0145    1.2089    0.0119 C.2       1 <0>         0.5167
     11 O1          0.0016   -0.0038   -0.0013 O.2       1 <0>        -0.5072
     12 C10        -1.3294    1.9448    0.0340 C.3       1 <0>         0.0977
     13 N2         -2.4301    0.9780    0.0354 N.pl3     1 <0>        -1.1066
     14 S1         -3.9623    1.4683    0.4284 S.o2      1 <0>         2.7417
     15 O2         -4.7968    0.3240    0.3137 O.2       1 <0>        -0.9500
     16 O3         -3.8535    2.2143    1.6330 O.2       1 <0>        -0.9510
     17 C11        -4.4835    2.5988   -0.8186 C.2       1 <0>        -0.8057
     18 C12        -5.1348    2.3473   -1.9804 C.2       1 <0>         0.0233
     19 C13        -5.4470    3.4032   -2.8160 C.2       1 <0>        -0.2220
     20 C14        -5.0926    4.6590   -2.4489 C.2       1 <0>        -0.0130
     21 S2         -4.2978    4.3734   -0.8760 S.3       1 <0>         0.1465
     22 C15        -5.3165    5.9594   -3.1768 C.3       1 <0>        -0.1035
     23 C16        -6.6372    6.5502   -2.7550 C.2       1 <0>         0.4681
     24 O4         -7.3259    5.9744   -1.9463 O.co2     1 <0>        -0.6220
     25 H1          6.1012    1.4523   -1.9218 H         1 <0>         0.0708
     26 H2          5.9038    2.8305   -0.8127 H         1 <0>         0.0690
     27 H3          6.8374    1.4037   -0.3019 H         1 <0>         0.0667
     28 H4          5.7165   -0.6502    0.3392 H         1 <0>         0.1214
     29 H5          3.6698   -1.6749    1.2430 H         1 <0>         0.1248
     30 H6          1.5220   -0.4830    1.0877 H         1 <0>         0.1456
     31 H7          3.6294    3.9212   -0.3294 H         1 <0>         0.0726
     32 H8          4.2318    3.2124   -1.8469 H         1 <0>         0.0742
     33 H9          2.4813    3.2893   -1.5339 H         1 <0>         0.0643
     34 H10         1.1314    2.8657   -0.0689 H         1 <0>         0.4151
     35 H11        -1.3859    2.5610    0.9314 H         1 <0>         0.1185
     36 H12        -1.4050    2.5802   -0.8484 H         1 <0>         0.1044
     37 H13        -2.2615    0.0507   -0.1938 H         1 <0>         0.4277
     38 H14        -5.4054    1.3370   -2.2495 H         1 <0>         0.1405
     39 H15        -5.9652    3.2303   -3.7476 H         1 <0>         0.1398
     40 H16        -4.5132    6.6549   -2.9337 H         1 <0>         0.0915
     41 H17        -5.3266    5.7772   -4.2514 H         1 <0>         0.1005
     42 O5         -7.0484    7.7161   -3.2778 O.co2     1 <0>        -0.7567
@<TRIPOS>BOND
     1    1    2 1
     2    1   25 1
     3    1   26 1
     4    1   27 1
     5    2    7 ar
     6    2    3 ar
     7    3    4 ar
     8    3   28 1
     9    4    5 ar
    10    4   29 1
    11    5    6 ar
    12    5   30 1
    13    6    7 ar
    14    6    9 1
    15    7    8 1
    16    8   31 1
    17    8   32 1
    18    8   33 1
    19    9   10 am
    20    9   34 1
    21   10   11 2
    22   10   12 1
    23   12   13 1
    24   12   35 1
    25   12   36 1
    26   13   14 1
    27   13   37 1
    28   14   15 2
    29   14   16 2
    30   14   17 1
    31   17   21 1
    32   17   18 2
    33   18   19 1
    34   18   38 1
    35   19   20 2
    36   19   39 1
    37   20   21 1
    38   20   22 1
    39   22   23 1
    40   22   40 1
    41   22   41 1
    42   23   24 2
    43   23   42 1
@<TRIPOS>MOLECULE
ZINC25501571
   46    47     0     0     0
SMALL
USER_CHARGES
3-[[4-(cyclohexylsulfamoyl)phenyl]carbamoyl]but-3-enoic acid
@<TRIPOS>ATOM
      1 C1          0.2033    5.0238    1.1939 C.2       1 <0>        -0.1112
      2 C2          0.1375    3.8327    0.6053 C.2       1 <0>        -0.1414
      3 C3          1.3571    3.2554   -0.0657 C.3       1 <0>        -0.1331
      4 C4          2.0733    2.3411    0.8946 C.2       1 <0>         0.4599
      5 O1          1.6380    2.1752    2.0095 O.co2     1 <0>        -0.6262
      6 O2          3.1948    1.7109    0.5114 O.co2     1 <0>        -0.7674
      7 C5         -1.1255    3.0793    0.6094 C.2       1 <0>         0.5738
      8 O3         -2.1098    3.5452    1.1509 O.2       1 <0>        -0.5339
      9 N1         -1.1906    1.8700    0.0179 N.am      1 <0>        -0.6830
     10 C6         -2.3601    1.1089    0.1095 C.ar      1 <0>         0.2257
     11 C7         -2.2849   -0.2755    0.1916 C.ar      1 <0>        -0.1686
     12 C8         -3.4417   -1.0239    0.2873 C.ar      1 <0>        -0.0005
     13 C9         -4.6743   -0.3970    0.2904 C.ar      1 <0>        -0.7096
     14 C10        -4.7529    0.9808    0.2031 C.ar      1 <0>        -0.0010
     15 C11        -3.5998    1.7355    0.1130 C.ar      1 <0>        -0.1508
     16 S1         -6.1480   -1.3560    0.4053 S.o2      1 <0>         2.6955
     17 O4         -5.7870   -2.5828    1.0250 O.2       1 <0>        -0.9609
     18 O5         -7.1495   -0.4996    0.9372 O.2       1 <0>        -0.9648
     19 N2         -6.6134   -1.7256   -1.1404 N.pl3     1 <0>        -1.1212
     20 C12        -5.7675   -2.5824   -1.9750 C.3       1 <0>         0.1519
     21 C13        -4.8609   -1.7106   -2.8463 C.3       1 <0>        -0.1458
     22 C14        -3.9775   -2.6053   -3.7179 C.3       1 <0>        -0.1196
     23 C15        -4.8604   -3.4771   -4.6132 C.3       1 <0>        -0.1220
     24 C16        -5.7669   -4.3488   -3.7419 C.3       1 <0>        -0.1205
     25 C17        -6.6504   -3.4541   -2.8703 C.3       1 <0>        -0.1172
     26 H1         -0.6869    5.4452    1.6837 H         1 <0>         0.1129
     27 H2          1.1480    5.5874    1.1908 H         1 <0>         0.1154
     28 H3          1.0509    2.6855   -0.9554 H         1 <0>         0.0708
     29 H4          2.0307    4.0712   -0.3668 H         1 <0>         0.0852
     30 H5         -0.3238    1.4817   -0.5369 H         1 <0>         0.4441
     31 H6         -1.3228   -0.7660    0.1850 H         1 <0>         0.1380
     32 H7         -3.3838   -2.1002    0.3559 H         1 <0>         0.1389
     33 H8         -5.7171    1.4674    0.2059 H         1 <0>         0.1383
     34 H9         -3.6618    2.8115    0.0448 H         1 <0>         0.1472
     35 H10        -7.4682   -1.1954   -1.5856 H         1 <0>         0.4372
     36 H11        -5.1684   -3.2068   -1.2959 H         1 <0>         0.0918
     37 H12        -5.4791   -1.0672   -3.4897 H         1 <0>         0.0701
     38 H13        -4.2261   -1.0839   -2.2027 H         1 <0>         0.0726
     39 H14        -3.3258   -1.9785   -4.3443 H         1 <0>         0.0663
     40 H15        -3.3592   -3.2486   -3.0745 H         1 <0>         0.0663
     41 H16        -5.4786   -2.8338   -5.2566 H         1 <0>         0.0619
     42 H17        -4.2252   -4.1204   -5.2398 H         1 <0>         0.0629
     43 H18        -6.4017   -4.9756   -4.3855 H         1 <0>         0.0655
     44 H19        -5.1487   -4.9921   -3.0985 H         1 <0>         0.0663
     45 H20        -7.3022   -4.0809   -2.2439 H         1 <0>         0.0711
     46 H21        -7.2686   -2.8108   -3.5137 H         1 <0>         0.0687
@<TRIPOS>BOND
     1    1    2 2
     2    1   26 1
     3    1   27 1
     4    2    3 1
     5    2    7 1
     6    3    4 1
     7    3   28 1
     8    3   29 1
     9    4    5 2
    10    4    6 1
    11    7    8 2
    12    7    9 am
    13    9   10 1
    14    9   30 1
    15   10   15 ar
    16   10   11 ar
    17   11   12 ar
    18   11   31 1
    19   12   13 ar
    20   12   32 1
    21   13   14 ar
    22   13   16 1
    23   14   15 ar
    24   14   33 1
    25   15   34 1
    26   16   17 2
    27   16   18 2
    28   16   19 1
    29   19   20 1
    30   19   35 1
    31   20   25 1
    32   20   21 1
    33   20   36 1
    34   21   22 1
    35   21   37 1
    36   21   38 1
    37   22   23 1
    38   22   39 1
    39   22   40 1
    40   23   24 1
    41   23   41 1
    42   23   42 1
    43   24   25 1
    44   24   43 1
    45   24   44 1
    46   25   45 1
    47   25   46 1
@<TRIPOS>MOLECULE
ZINC40219110
   28    29     0     0     0
SMALL
USER_CHARGES

@<TRIPOS>ATOM
      1 C1         -0.0167    1.3781    0.0096 C.ar      1 <0>         0.0071
      2 C2          1.1692    2.0876    0.0021 C.ar      1 <0>        -0.1772
      3 C3          2.3811    1.4114   -0.0131 C.ar      1 <0>         0.3078
      4 C4          2.3976    0.0203   -0.0208 C.ar      1 <0>        -0.0785
      5 C5          1.2074   -0.6827   -0.0132 C.ar      1 <0>         0.0056
      6 C6          0.0021   -0.0041    0.0020 C.ar      1 <0>        -0.7542
      7 S1         -1.5130   -0.9036    0.0117 S.o2      1 <0>         2.7099
      8 O1         -1.2212   -2.1847    0.5529 O.2       1 <0>        -0.9792
      9 O2         -2.4926   -0.0431    0.5765 O.2       1 <0>        -0.9771
     10 N1         -1.9491   -1.1451   -1.5675 N.pl3     1 <0>        -1.2538
     11 F1          3.5748   -0.6424   -0.0360 F         1 <0>        -0.1378
     12 N2          3.5828    2.1266   -0.0212 N.2       1 <0>        -1.0727
     13 S2          5.0277    1.3177   -0.0394 S.o2      1 <0>         2.6457
     14 O3          5.1251    0.6324    1.2016 O.2       1 <0>        -1.0026
     15 O4          5.1008    0.6450   -1.2889 O.2       1 <0>        -1.0055
     16 C7          6.3045    2.5320   -0.0457 C.2       1 <0>        -0.6690
     17 C8          6.9368    3.1107    1.0040 C.2       1 <0>        -0.0438
     18 C9          7.9202    4.0512    0.7590 C.2       1 <0>        -0.1324
     19 C10         8.2226    4.3664   -0.5251 C.2       1 <0>        -0.1731
     20 S3          7.1058    3.3132   -1.4366 S.3       1 <0>         0.2103
     21 Br1         9.5006    5.5967   -1.1799 Br        1 <0>         0.0374
     22 H1         -0.9596    1.9043    0.0260 H         1 <0>         0.1334
     23 H2          1.1529    3.1674    0.0077 H         1 <0>         0.1339
     24 H3          1.2185   -1.7627   -0.0195 H         1 <0>         0.1361
     25 H4         -2.4580   -1.9329   -1.8151 H         1 <0>         0.4141
     26 H5         -1.6957   -0.4987   -2.2449 H         1 <0>         0.4163
     27 H6          6.6762    2.8415    2.0169 H         1 <0>         0.1530
     28 H7          8.4393    4.5277    1.5774 H         1 <0>         0.1463
@<TRIPOS>BOND
     1    1    6 ar
     2    1    2 ar
     3    1   22 1
     4    2    3 ar
     5    2   23 1
     6    3    4 ar
     7    3   12 1
     8    4    5 ar
     9    4   11 1
    10    5    6 ar
    11    5   24 1
    12    6    7 1
    13    7    8 2
    14    7    9 2
    15    7   10 1
    16   10   25 1
    17   10   26 1
    18   12   13 1
    19   13   14 2
    20   13   15 2
    21   13   16 1
    22   16   20 1
    23   16   17 2
    24   17   18 1
    25   17   27 1
    26   18   19 2
    27   18   28 1
    28   19   20 1
    29   19   21 1
@<TRIPOS>MOLECULE
ZINC60443690
   38    39     0     0     0
SMALL
USER_CHARGES

@<TRIPOS>ATOM
      1 C1         -0.0184    1.5028    0.0103 C.3       1 <0>        -0.0964
      2 C2          0.0021   -0.0041    0.0020 C.ar      1 <0>        -0.0735
      3 C3          0.0058   -0.6879   -1.1981 C.ar      1 <0>        -0.1456
      4 C4          0.0251   -2.0762   -1.2055 C.ar      1 <0>         0.2540
      5 C5          0.0406   -2.7760   -0.0060 C.ar      1 <0>        -0.2335
      6 C6          0.0369   -2.0908    1.1928 C.ar      1 <0>        -0.1422
      7 C7          0.0229   -0.7036    1.1992 C.ar      1 <0>         0.0184
      8 O1          0.0245   -0.0294    2.3804 O.3       1 <0>        -0.3261
      9 C8          0.0465   -0.8135    3.5749 C.3       1 <0>         0.0339
     10 N1          0.0284   -2.7698   -2.4209 N.2       1 <0>        -1.0815
     11 S1          0.0514   -4.4257   -2.4292 S.o2      1 <0>         2.5895
     12 O2          1.3052   -4.8171   -1.8869 O.2       1 <0>        -1.0208
     13 O3         -1.1853   -4.8518   -1.8739 O.2       1 <0>        -1.0149
     14 C9          0.0497   -4.9383   -4.1150 C.ar      1 <0>        -0.6017
     15 C10         1.1388   -5.6132   -4.6334 C.ar      1 <0>        -0.0242
     16 C11         1.1378   -6.0155   -5.9558 C.ar      1 <0>        -0.0607
     17 C12         0.0476   -5.7433   -6.7615 C.ar      1 <0>        -0.6217
     18 C13        -1.0425   -5.0691   -6.2453 C.ar      1 <0>        -0.0786
     19 C14        -1.0448   -4.6702   -4.9192 C.ar      1 <0>         0.1839
     20 F1         -2.1120   -4.0151   -4.4121 F         1 <0>        -0.1061
     21 S2          0.0485   -6.2559   -8.4473 S.o2      1 <0>         2.7069
     22 O4         -0.8577   -5.4020   -9.1319 O.2       1 <0>        -0.9573
     23 O5          1.4104   -6.3862   -8.8314 O.2       1 <0>        -0.9544
     24 N2         -0.6048   -7.7767   -8.4970 N.pl3     1 <0>        -1.2466
     25 H1          1.0042    1.8801    0.0026 H         1 <0>         0.0591
     26 H2         -0.5455    1.8639   -0.8728 H         1 <0>         0.0580
     27 H3         -0.5286    1.8543    0.9071 H         1 <0>         0.0614
     28 H4         -0.0067   -0.1429   -2.1304 H         1 <0>         0.1210
     29 H5          0.0553   -3.8559   -0.0109 H         1 <0>         0.0984
     30 H6          0.0490   -2.6349    2.1257 H         1 <0>         0.1097
     31 H7         -0.8344   -1.4548    3.6049 H         1 <0>         0.0452
     32 H8          0.9454   -1.4299    3.5883 H         1 <0>         0.0453
     33 H9          0.0454   -0.1538    4.4426 H         1 <0>         0.0861
     34 H10         1.9911   -5.8261   -4.0051 H         1 <0>         0.1600
     35 H11         1.9893   -6.5425   -6.3601 H         1 <0>         0.1544
     36 H12        -1.8938   -4.8563   -6.8749 H         1 <0>         0.1595
     37 H13        -1.0894   -8.0709   -9.2841 H         1 <0>         0.4219
     38 H14        -0.5029   -8.3734   -7.7390 H         1 <0>         0.4190
@<TRIPOS>BOND
     1    1    2 1
     2    1   25 1
     3    1   26 1
     4    1   27 1
     5    2    7 ar
     6    2    3 ar
     7    3    4 ar
     8    3   28 1
     9    4    5 ar
    10    4   10 1
    11    5    6 ar
    12    5   29 1
    13    6    7 ar
    14    6   30 1
    15    7    8 1
    16    8    9 1
    17    9   31 1
    18    9   32 1
    19    9   33 1
    20   10   11 1
    21   11   12 2
    22   11   13 2
    23   11   14 1
    24   14   19 ar
    25   14   15 ar
    26   15   16 ar
    27   15   34 1
    28   16   17 ar
    29   16   35 1
    30   17   18 ar
    31   17   21 1
    32   18   19 ar
    33   18   36 1
    34   19   20 1
    35   21   22 2
    36   21   23 2
    37   21   24 1
    38   24   37 1
    39   24   38 1
@<TRIPOS>MOLECULE
ZINC66250577
   33    34     0     0     0
SMALL
USER_CHARGES

@<TRIPOS>ATOM
      1 C1         -0.0167    1.3770    0.0096 C.ar      1 <0>        -0.0381
      2 C2          1.1707    2.0858    0.0021 C.ar      1 <0>        -0.1625
      3 C3          2.3791    1.4145   -0.0130 C.ar      1 <0>         0.0062
      4 C4          2.4032    0.0331   -0.0211 C.ar      1 <0>        -0.6308
      5 C5          1.2136   -0.6802   -0.0135 C.ar      1 <0>         0.2092
      6 C6          0.0021   -0.0041    0.0020 C.ar      1 <0>        -0.2178
      7 O1          1.2347   -2.0390   -0.0215 O.3       1 <0>        -0.2888
      8 C7         -0.0283   -2.7075   -0.0130 C.3       1 <0>         0.6054
      9 F1         -0.7600   -2.3363   -1.1461 F         1 <0>        -0.1675
     10 F2          0.1765   -4.0914   -0.0228 F         1 <0>        -0.1254
     11 F3         -0.7378   -2.3493    1.1383 F         1 <0>        -0.1643
     12 S1          3.9438   -0.8218   -0.0415 S.o2      1 <0>         2.6180
     13 O2          3.8539   -1.7964   -1.0717 O.2       1 <0>        -0.9966
     14 O3          4.9598    0.1715   -0.0191 O.2       1 <0>        -1.0063
     15 N1          4.0620   -1.6521    1.3865 N.2       1 <0>        -1.0075
     16 C8          5.1837   -2.4229    1.6492 C.2       1 <0>         0.4395
     17 N2          5.4463   -3.1479    2.7157 N.2       1 <0>        -0.5774
     18 C9          6.5721   -3.8327    2.8143 C.2       1 <0>         0.1313
     19 C10         7.4350   -3.7528    1.7731 C.2       1 <0>        -0.3070
     20 S2          6.5371   -2.6650    0.6785 S.3       1 <0>        -0.1284
     21 C11         6.8826   -4.6654    4.0314 C.3       1 <0>        -0.0604
     22 C12         6.7891   -3.8056    5.2655 C.2       1 <0>         0.5148
     23 O4          6.4990   -2.6321    5.1664 O.2       1 <0>        -0.5067
     24 N3          7.0280   -4.3406    6.4792 N.am      1 <0>        -0.8688
     25 H1         -0.9594    1.9037    0.0259 H         1 <0>         0.1368
     26 H2          1.1540    3.1657    0.0076 H         1 <0>         0.1373
     27 H3          3.3051    1.9704   -0.0189 H         1 <0>         0.1544
     28 H4         -0.9255   -0.5572    0.0082 H         1 <0>         0.1384
     29 H5          8.3990   -4.2212    1.6401 H         1 <0>         0.1706
     30 H6          6.1666   -5.4840    4.1038 H         1 <0>         0.1012
     31 H7          7.8908   -5.0710    3.9466 H         1 <0>         0.1004
     32 H8          7.2600   -5.2790    6.5584 H         1 <0>         0.3954
     33 H9          6.9678   -3.7871    7.2736 H         1 <0>         0.3953
@<TRIPOS>BOND
     1    1    6 ar
     2    1    2 ar
     3    1   25 1
     4    2    3 ar
     5    2   26 1
     6    3    4 ar
     7    3   27 1
     8    4    5 ar
     9    4   12 1
    10    5    6 ar
    11    5    7 1
    12    6   28 1
    13    7    8 1
    14    8    9 1
    15    8   10 1
    16    8   11 1
    17   12   13 2
    18   12   14 2
    19   12   15 1
    20   15   16 1
    21   16   20 1
    22   16   17 2
    23   17   18 1
    24   18   19 2
    25   18   21 1
    26   19   20 1
    27   19   29 1
    28   21   22 1
    29   21   30 1
    30   21   31 1
    31   22   23 2
    32   22   24 am
    33   24   32 1
    34   24   33 1
@<TRIPOS>MOLECULE
ZINC05760086
   37    40     0     0     0
SMALL
USER_CHARGES
(4-hydroxyphenyl)-methyl-BLAHdione
@<TRIPOS>ATOM
      1 C1          1.9357    2.1305   -1.7726 C.3       1 <0>        -0.1362
      2 C2          1.3602    1.9924   -0.3617 C.3       1 <0>        -0.0613
      3 H1          1.2783    2.9641    0.1254 H         1 <0>         0.1540
      4 C3          0.0197    1.2717   -0.3818 C.2       1 <0>         0.5224
      5 O1         -0.9931    1.8359   -0.7384 O.2       1 <0>        -0.4859
      6 N1          0.0021   -0.0041    0.0020 N.am      1 <0>        -0.5407
      7 C4          1.2505   -0.6281    0.4269 C.3       1 <0>         0.2087
      8 S1          2.3583    0.8168    0.6553 S.3       1 <0>        -0.1839
      9 C5          1.8148   -1.5814   -0.5801 C.ar      1 <0>        -0.1495
     10 C6          2.1553   -1.4754   -1.9102 C.ar      1 <0>        -0.0421
     11 C7          2.6689   -2.5689   -2.5841 C.ar      1 <0>        -0.1356
     12 C8          2.8400   -3.7693   -1.9189 C.ar      1 <0>        -0.0659
     13 C9          2.5008   -3.8813   -0.5867 C.ar      1 <0>        -0.1340
     14 C10         1.9822   -2.7862    0.0997 C.ar      1 <0>         0.1615
     15 N2          1.5700   -2.6532    1.4282 N.am      1 <0>        -0.6545
     16 C11         1.1232   -1.4095    1.6995 C.2       1 <0>         0.5508
     17 O2          0.7023   -1.0041    2.7623 O.2       1 <0>        -0.4508
     18 C12        -1.1943   -0.7333   -0.0019 C.ar      1 <0>         0.1078
     19 C13        -1.5257   -1.5182   -1.0982 C.ar      1 <0>        -0.0789
     20 C14        -2.7022   -2.2412   -1.0990 C.ar      1 <0>        -0.1392
     21 C15        -3.5584   -2.1745   -0.0096 C.ar      1 <0>         0.1234
     22 C16        -3.2306   -1.3860    1.0837 C.ar      1 <0>        -0.1375
     23 C17        -2.0517   -0.6670    1.0882 C.ar      1 <0>        -0.0769
     24 O3         -4.7196   -2.8818   -0.0135 O.3       1 <0>        -0.4971
     25 H2          1.2440    2.7003   -2.3930 H         1 <0>         0.0847
     26 H3          2.8932    2.6492   -1.7253 H         1 <0>         0.0873
     27 H4          2.0799    1.1402   -2.2047 H         1 <0>         0.0696
     28 H5          2.0208   -0.5373   -2.4281 H         1 <0>         0.1293
     29 H6          2.9360   -2.4853   -3.6272 H         1 <0>         0.1372
     30 H7          3.2414   -4.6229   -2.4449 H         1 <0>         0.1384
     31 H8          2.6375   -4.8220   -0.0740 H         1 <0>         0.1339
     32 H9          1.6015   -3.3713    2.0795 H         1 <0>         0.4240
     33 H10        -0.8615   -1.5665   -1.9485 H         1 <0>         0.1309
     34 H11        -2.9579   -2.8553   -1.9498 H         1 <0>         0.1380
     35 H12        -3.8978   -1.3342    1.9314 H         1 <0>         0.1383
     36 H13        -1.7968   -0.0529    1.9393 H         1 <0>         0.1339
     37 H14        -5.4719   -2.4007   -0.3844 H         1 <0>         0.3961
@<TRIPOS>BOND
     1    1    2 1
     2    1   25 1
     3    1   26 1
     4    1   27 1
     5    2    3 1
     6    2    8 1
     7    2    4 1
     8    4    5 2
     9    4    6 am
    10    6    7 1
    11    6   18 1
    12    7   16 1
    13    7    8 1
    14    7    9 1
    15    9   14 ar
    16    9   10 ar
    17   10   11 ar
    18   10   28 1
    19   11   12 ar
    20   11   29 1
    21   12   13 ar
    22   12   30 1
    23   13   14 ar
    24   13   31 1
    25   14   15 1
    26   15   16 am
    27   15   32 1
    28   16   17 2
    29   18   23 ar
    30   18   19 ar
    31   19   20 ar
    32   19   33 1
    33   20   21 ar
    34   20   34 1
    35   21   22 ar
    36   21   24 1
    37   22   23 ar
    38   22   35 1
    39   23   36 1
    40   24   37 1
@<TRIPOS>MOLECULE
ZINC32274617
   28    30     0     0     0
SMALL
USER_CHARGES
N-[(4-bromophenyl)methyl]-7H-purin-6-amine
@<TRIPOS>ATOM
      1 C1          6.8857   -1.8827    1.1238 C.ar      1 <0>        -0.0920
      2 C2          7.5513   -3.0940    1.1112 C.ar      1 <0>        -0.0926
      3 C3          7.8755   -3.6923   -0.0931 C.ar      1 <0>        -0.0823
      4 C4          7.5288   -3.0805   -1.2842 C.ar      1 <0>        -0.0926
      5 C5          6.8585   -1.8718   -1.2706 C.ar      1 <0>        -0.0921
      6 C6          6.5346   -1.2743   -0.0668 C.ar      1 <0>        -0.0954
      7 C7          5.8043    0.0438   -0.0525 C.3       1 <0>         0.1696
      8 N1          4.3595   -0.1985   -0.0406 N.pl3     1 <0>        -0.7026
      9 C8          3.4779    0.8702   -0.0263 C.ar      1 <0>         0.5075
     10 C9          2.0979    0.6571   -0.0144 C.ar      1 <0>        -0.1059
     11 C10         1.2449    1.7726   -0.0003 C.ar      1 <0>         0.2651
     12 N2         -0.0156    1.2998    0.0096 N.pl3     1 <0>        -0.5451
     13 C11         0.0021   -0.0041    0.0026 C.2       1 <0>         0.2392
     14 N3          1.2779   -0.4514   -0.0126 N.2       1 <0>        -0.4706
     15 H1         -0.8650    1.9986    0.0216 H         1 <0>         0.4619
     16 N4          1.7875    2.9946    0.0007 N.ar      1 <0>        -0.5612
     17 C12         3.0930    3.1465   -0.0102 C.ar      1 <0>         0.3584
     18 N5          3.9271    2.1224   -0.0237 N.ar      1 <0>        -0.5923
     19 Br1         8.7920   -5.3463   -0.1111 Br        1 <0>        -0.0461
     20 H2          6.6361   -1.4136    2.0640 H         1 <0>         0.1342
     21 H3          7.8215   -3.5715    2.0415 H         1 <0>         0.1356
     22 H4          7.7814   -3.5474   -2.2248 H         1 <0>         0.1356
     23 H5          6.5874   -1.3943   -2.2006 H         1 <0>         0.1342
     24 H6          6.0885    0.6107    0.8463 H         1 <0>         0.0808
     25 H7          6.0719    0.6210   -0.9499 H         1 <0>         0.0808
     26 H8          3.9746   -1.2290   -0.0429 H         1 <0>         0.4431
     27 H9         -0.8746   -0.6347    0.0079 H         1 <0>         0.2226
     28 H10         3.4994    4.1471   -0.0086 H         1 <0>         0.2020
@<TRIPOS>BOND
     1    1    6 ar
     2    1    2 ar
     3    1   20 1
     4    2    3 ar
     5    2   21 1
     6    3    4 ar
     7    3   19 1
     8    4    5 ar
     9    4   22 1
    10    5    6 ar
    11    5   23 1
    12    6    7 1
    13    7    8 1
    14    7   24 1
    15    7   25 1
    16    8    9 1
    17    8   26 1
    18    9   10 ar
    19    9   18 ar
    20   10   14 1
    21   10   11 ar
    22   11   16 ar
    23   11   12 1
    24   12   15 1
    25   12   13 1
    26   13   27 1
    27   13   14 2
    28   16   17 ar
    29   17   28 1
    30   17   18 ar
@<TRIPOS>MOLECULE
ZINC39444098
   37    39     0     0     0
SMALL
USER_CHARGES

@<TRIPOS>ATOM
      1 C1         -0.0187    1.5258    0.0104 C.3       1 <0>        -0.1537
      2 C2          0.0021   -0.0041    0.0020 C.3       1 <0>        -0.1202
      3 C3          0.7182   -0.4975   -1.2568 C.3       1 <0>        -0.0392
      4 C4          0.7386   -2.0043   -1.2651 C.2       1 <0>        -0.1302
      5 C5         -0.1638   -2.8674   -1.7924 C.2       1 <0>        -0.1622
      6 C6          0.0639   -4.2262   -1.6812 C.2       1 <0>        -0.1348
      7 C7          1.1828   -4.6556   -1.0480 C.2       1 <0>        -0.1504
      8 S1          1.9617   -3.1158   -0.5898 S.3       1 <0>         0.0555
      9 C8          1.6508   -6.0664   -0.8002 C.3       1 <0>         0.1569
     10 H1          0.9382   -6.7781   -1.2170 H         1 <0>         0.1249
     11 C9          1.8249   -6.3082    0.6882 C.2       1 <0>        -0.2929
     12 C10         2.9702   -6.8096    1.1963 C.2       1 <0>         0.4572
     13 O1          4.0812   -7.1320    0.5087 O.3       1 <0>        -0.2779
     14 C11         3.9375   -7.3833   -0.8913 C.3       1 <0>         0.1675
     15 H2          3.5368   -8.3780   -1.0867 H         1 <0>         0.1677
     16 C12         3.0113   -6.2772   -1.4055 C.2       1 <0>        -0.1693
     17 C13         3.6874   -5.6821   -2.3570 C.2       1 <0>         0.0100
     18 N1          4.9409   -6.1975   -2.4379 N.2       1 <0>        -0.1156
     19 N2          5.1738   -7.1339   -1.6375 N.2       1 <0>        -0.1342
     20 C14         3.1504   -4.5823   -3.2363 C.3       1 <0>        -0.0966
     21 N3          3.0056   -7.0110    2.5531 N.pl3     1 <0>        -0.8317
     22 C15         0.7461   -5.9955    1.5764 C.1       1 <0>         0.2741
     23 N4         -0.1098   -5.7475    2.2810 N.1       1 <0>        -0.4375
     24 H3          1.0039    1.9031    0.0027 H         1 <0>         0.0561
     25 H4         -0.5459    1.8868   -0.8726 H         1 <0>         0.0567
     26 H5         -0.5289    1.8773    0.9072 H         1 <0>         0.0579
     27 H6          0.5293   -0.3651    0.8851 H         1 <0>         0.0640
     28 H7         -1.0205   -0.3814    0.0098 H         1 <0>         0.0660
     29 H8          0.1910   -0.1364   -2.1398 H         1 <0>         0.0883
     30 H9          1.7408   -0.1202   -1.2645 H         1 <0>         0.0799
     31 H10        -1.0477   -2.4988   -2.2917 H         1 <0>         0.1336
     32 H11        -0.6395   -4.9352   -2.0922 H         1 <0>         0.1339
     33 H12         3.3527   -3.6161   -2.7741 H         1 <0>         0.0903
     34 H13         3.6354   -4.6273   -4.2115 H         1 <0>         0.0845
     35 H14         2.0747   -4.7081   -3.3594 H         1 <0>         0.0846
     36 H15         2.2313   -6.7948    3.0959 H         1 <0>         0.4246
     37 H16         3.8049   -7.3696    2.9695 H         1 <0>         0.4123
@<TRIPOS>BOND
     1    1    2 1
     2    1   24 1
     3    1   25 1
     4    1   26 1
     5    2    3 1
     6    2   27 1
     7    2   28 1
     8    3    4 1
     9    3   29 1
    10    3   30 1
    11    4    8 1
    12    4    5 2
    13    5    6 1
    14    5   31 1
    15    6    7 2
    16    6   32 1
    17    7    8 1
    18    7    9 1
    19    9   10 1
    20    9   16 1
    21    9   11 1
    22   11   12 2
    23   11   22 1
    24   12   13 1
    25   12   21 1
    26   13   14 1
    27   14   15 1
    28   14   19 1
    29   14   16 1
    30   16   17 2
    31   17   18 1
    32   17   20 1
    33   18   19 2
    34   20   33 1
    35   20   34 1
    36   20   35 1
    37   21   36 1
    38   21   37 1
    39   22   23 3
@<TRIPOS>MOLECULE
ZINC43534750
   32    34     0     0     0
SMALL
USER_CHARGES

@<TRIPOS>ATOM
      1 C1         -0.0452    1.4026    0.0304 C.ar      1 <0>        -0.0443
      2 C2          1.1324    2.1280    0.0247 C.ar      1 <0>        -0.1260
      3 C3          2.3481    1.4665   -0.0069 C.ar      1 <0>         0.1025
      4 C4          2.3875    0.0791   -0.0332 C.ar      1 <0>         0.0566
      5 C5          1.2113   -0.6495   -0.0276 C.ar      1 <0>        -0.0487
      6 C6         -0.0093    0.0147    0.0042 C.ar      1 <0>        -0.1340
      7 S1         -1.5121   -0.9050    0.0120 S.3       1 <0>         0.0919
      8 C7         -1.9713   -0.9858   -1.6872 C.ar      1 <0>         0.2005
      9 C8         -3.1956   -1.5414   -2.0644 C.ar      1 <0>        -0.2514
     10 C9         -3.5138   -1.5837   -3.4093 C.ar      1 <0>         0.2805
     11 N1         -2.6534   -1.0990   -4.2949 N.ar      1 <0>        -0.5741
     12 C10        -1.4988   -0.5777   -3.9073 C.ar      1 <0>         0.5996
     13 N2         -1.1592   -0.5135   -2.6288 N.ar      1 <0>        -0.5652
     14 N3         -0.6278   -0.0828   -4.8623 N.pl3     1 <0>        -0.8142
     15 Cl1        -5.0226   -2.2642   -3.9331 Cl        1 <0>        -0.0044
     16 O1          3.5926   -0.5606   -0.0634 O.3       1 <0>        -0.3157
     17 C11         4.3490   -0.4120   -1.2666 C.3       1 <0>         0.0592
     18 C12         5.1596    0.8743   -1.2389 C.3       1 <0>        -0.1892
     19 C13         4.2783    2.1134   -1.2193 C.3       1 <0>         0.0613
     20 O2          3.5161    2.1743   -0.0121 O.3       1 <0>        -0.3192
     21 H1         -0.9946    1.9167    0.0599 H         1 <0>         0.1403
     22 H2          1.1037    3.2074    0.0445 H         1 <0>         0.1431
     23 H3          1.2415   -1.7289   -0.0483 H         1 <0>         0.1434
     24 H4         -3.8781   -1.9295   -1.3228 H         1 <0>         0.1607
     25 H5         -0.8659   -0.1203   -5.8018 H         1 <0>         0.4184
     26 H6          0.2208    0.3016   -4.5920 H         1 <0>         0.4165
     27 H7          5.0255   -1.2601   -1.3722 H         1 <0>         0.1070
     28 H8          3.6684   -0.3889   -2.1177 H         1 <0>         0.0579
     29 H9          5.7900    0.8753   -0.3497 H         1 <0>         0.0864
     30 H10         5.7976    0.9088   -2.1220 H         1 <0>         0.0936
     31 H11         4.9062    3.0014   -1.2923 H         1 <0>         0.1083
     32 H12         3.5991    2.0841   -2.0713 H         1 <0>         0.0589
@<TRIPOS>BOND
     1    1    6 ar
     2    1    2 ar
     3    1   21 1
     4    2    3 ar
     5    2   22 1
     6    3   20 1
     7    3    4 ar
     8    4    5 ar
     9    4   16 1
    10    5    6 ar
    11    5   23 1
    12    6    7 1
    13    7    8 1
    14    8   13 ar
    15    8    9 ar
    16    9   10 ar
    17    9   24 1
    18   10   11 ar
    19   10   15 1
    20   11   12 ar
    21   12   13 ar
    22   12   14 1
    23   14   25 1
    24   14   26 1
    25   16   17 1
    26   17   18 1
    27   17   27 1
    28   17   28 1
    29   18   19 1
    30   18   29 1
    31   18   30 1
    32   19   20 1
    33   19   31 1
    34   19   32 1
@<TRIPOS>MOLECULE
ZINC09113815
   39    42     0     0     0
SMALL
USER_CHARGES

@<TRIPOS>ATOM
      1 C1         -0.4581    1.2229   -0.9987 C.3       1 <0>        -0.1508
      2 C2         -0.3347   -0.2928   -0.8301 C.3       1 <0>         0.0799
      3 H1         -1.3186   -0.7620   -0.8351 H         1 <0>         0.0980
      4 C3          0.5693   -0.8980   -1.9378 C.3       1 <0>        -0.1292
      5 C4          1.1053   -2.1601   -1.2150 C.3       1 <0>        -0.1612
      6 H2          0.5419   -3.0425   -1.5183 H         1 <0>         0.1430
      7 C5          0.8787   -1.8637    0.2552 C.2       1 <0>         0.4894
      8 O1          1.1047   -2.6229    1.1676 O.2       1 <0>        -0.4131
      9 O2          0.3804   -0.6164    0.3811 O.3       1 <0>        -0.3354
     10 S1          2.8722   -2.3870   -1.5569 S.3       1 <0>         0.0759
     11 C6          3.2613   -3.9240   -0.7883 C.ar      1 <0>         0.3482
     12 N1          2.3059   -4.5976   -0.1580 N.ar      1 <0>        -0.5717
     13 C7          2.5377   -5.7553    0.4370 C.ar      1 <0>         0.5044
     14 C8          3.8510   -6.3031    0.4052 C.ar      1 <0>        -0.2454
     15 C9          4.3346   -7.5557    0.9907 C.2       1 <0>        -0.0780
     16 C10         5.6385   -7.8488    0.8166 C.2       1 <0>        -0.1499
     17 S2          6.2952   -6.4969   -0.1237 S.3       1 <0>         0.1195
     18 C11         4.8127   -5.5357   -0.2809 C.ar      1 <0>         0.1559
     19 N2          4.5016   -4.3893   -0.8547 N.ar      1 <0>        -0.4982
     20 C12         6.3715   -9.0578    1.3133 C.3       1 <0>        -0.0400
     21 C13         5.5045   -9.7474    2.3763 C.3       1 <0>        -0.1154
     22 C14         4.0775   -9.8785    1.8357 C.3       1 <0>        -0.1198
     23 C15         3.4200   -8.4996    1.7667 C.3       1 <0>        -0.0729
     24 N3          1.5157   -6.4263    1.0835 N.pl3     1 <0>        -0.8288
     25 H3          0.5345    1.6727   -0.9785 H         1 <0>         0.0725
     26 H4         -0.9381    1.4445   -1.9519 H         1 <0>         0.0853
     27 H5         -1.0587    1.6311   -0.1858 H         1 <0>         0.0738
     28 H6         -0.0138   -1.1667   -2.8186 H         1 <0>         0.1132
     29 H7          1.3813   -0.2189   -2.1978 H         1 <0>         0.1030
     30 H8          6.5519   -9.7435    0.4854 H         1 <0>         0.0878
     31 H9          7.3215   -8.7557    1.7540 H         1 <0>         0.0863
     32 H10         5.9068  -10.7376    2.5903 H         1 <0>         0.0781
     33 H11         5.4970   -9.1485    3.2870 H         1 <0>         0.0702
     34 H12         4.1069  -10.3164    0.8380 H         1 <0>         0.0694
     35 H13         3.4978  -10.5234    2.4962 H         1 <0>         0.0736
     36 H14         3.2697   -8.1151    2.7754 H         1 <0>         0.0815
     37 H15         2.4597   -8.5786    1.2571 H         1 <0>         0.0786
     38 H16         0.5921   -6.1856    0.9107 H         1 <0>         0.4085
     39 H17         1.7225   -7.1376    1.7097 H         1 <0>         0.4137
@<TRIPOS>BOND
     1    1    2 1
     2    1   25 1
     3    1   26 1
     4    1   27 1
     5    2    3 1
     6    2    9 1
     7    2    4 1
     8    4    5 1
     9    4   28 1
    10    4   29 1
    11    5    6 1
    12    5    7 1
    13    5   10 1
    14    7    8 2
    15    7    9 1
    16   10   11 1
    17   11   19 ar
    18   11   12 ar
    19   12   13 ar
    20   13   14 ar
    21   13   24 1
    22   14   18 ar
    23   14   15 1
    24   15   23 1
    25   15   16 2
    26   16   17 1
    27   16   20 1
    28   17   18 1
    29   18   19 ar
    30   20   21 1
    31   20   30 1
    32   20   31 1
    33   21   22 1
    34   21   32 1
    35   21   33 1
    36   22   23 1
    37   22   34 1
    38   22   35 1
    39   23   36 1
    40   23   37 1
    41   24   38 1
    42   24   39 1
@<TRIPOS>MOLECULE
ZINC00714280
   36    39     0     0     0
SMALL
USER_CHARGES
amino-(3-bromo-4-fluoro-phenyl)-oxo-BLAHcarbonitrile
@<TRIPOS>ATOM
      1 C1          4.8856    4.5853   -1.5171 C.ar      1 <0>        -0.1395
      2 C2          5.7840    3.9454   -0.6757 C.ar      1 <0>        -0.0501
      3 C3          5.3775    2.8930    0.1172 C.ar      1 <0>        -0.1313
      4 C4          4.0568    2.4650    0.0778 C.ar      1 <0>         0.1661
      5 C5          3.1466    3.1128   -0.7728 C.ar      1 <0>        -0.1463
      6 C6          3.5713    4.1772   -1.5707 C.ar      1 <0>        -0.0424
      7 C7          1.7504    2.6494   -0.8043 C.2       1 <0>         0.2326
      8 C8          1.4003    1.6037   -0.0027 C.2       1 <0>        -0.2739
      9 C9          2.3695    1.0057    0.8216 C.2       1 <0>         0.5325
     10 O1          2.0462    0.0711    1.5338 O.2       1 <0>        -0.4412
     11 O2          3.6409    1.4351    0.8459 O.3       1 <0>        -0.2649
     12 C10        -0.0127    1.0858    0.0080 C.3       1 <0>         0.1083
     13 H1          0.0021   -0.0041    0.0020 H         1 <0>         0.1137
     14 C11        -0.7562    1.5805   -1.2014 C.2       1 <0>        -0.2581
     15 C12        -0.2888    2.6209   -1.9322 C.2       1 <0>         0.4301
     16 O3          0.8544    3.2517   -1.6087 O.3       1 <0>        -0.2280
     17 N1         -0.9986    3.0416   -3.0291 N.pl3     1 <0>        -0.8229
     18 C13        -1.9781    0.9413   -1.5873 C.1       1 <0>         0.2686
     19 N2         -2.9474    0.4342   -1.8935 N.1       1 <0>        -0.4259
     20 C14        -0.7121    1.5688    1.2524 C.ar      1 <0>        -0.0853
     21 C15        -1.2106    0.6556    2.1631 C.ar      1 <0>        -0.0511
     22 C16        -1.8522    1.0969    3.3048 C.ar      1 <0>        -0.1435
     23 C17        -1.9960    2.4542    3.5369 C.ar      1 <0>         0.1292
     24 C18        -1.4963    3.3685    2.6241 C.ar      1 <0>        -0.1314
     25 C19        -0.8496    2.9243    1.4852 C.ar      1 <0>        -0.0502
     26 Br1        -1.6914    5.2229    2.9389 Br        1 <0>        -0.0280
     27 F1         -2.6235    2.8866    4.6525 F         1 <0>        -0.1226
     28 H2          5.2183    5.4078   -2.1329 H         1 <0>         0.1419
     29 H3          6.8121    4.2745   -0.6417 H         1 <0>         0.1465
     30 H4          6.0856    2.4017    0.7681 H         1 <0>         0.1523
     31 H5          2.8736    4.6768   -2.2264 H         1 <0>         0.1448
     32 H6         -0.6744    3.7855   -3.5605 H         1 <0>         0.4145
     33 H7         -1.8245    2.5950   -3.2728 H         1 <0>         0.4299
     34 H8         -1.0982   -0.4032    1.9823 H         1 <0>         0.1443
     35 H9         -2.2417    0.3831    4.0156 H         1 <0>         0.1487
     36 H10        -0.4559    3.6366    0.7753 H         1 <0>         0.1328
@<TRIPOS>BOND
     1    1    6 ar
     2    1    2 ar
     3    1   28 1
     4    2    3 ar
     5    2   29 1
     6    3    4 ar
     7    3   30 1
     8    4   11 1
     9    4    5 ar
    10    5    6 ar
    11    5    7 1
    12    6   31 1
    13    7   16 1
    14    7    8 2
    15    8    9 1
    16    8   12 1
    17    9   10 2
    18    9   11 1
    19   12   13 1
    20   12   14 1
    21   12   20 1
    22   14   15 2
    23   14   18 1
    24   15   16 1
    25   15   17 1
    26   17   32 1
    27   17   33 1
    28   18   19 3
    29   20   25 ar
    30   20   21 ar
    31   21   22 ar
    32   21   34 1
    33   22   23 ar
    34   22   35 1
    35   23   24 ar
    36   23   27 1
    37   24   25 ar
    38   24   26 1
    39   25   36 1
@<TRIPOS>MOLECULE
ZINC02843515
   56    58     0     0     0
SMALL
USER_CHARGES
2-amino-4-[3-(methoxymethyl)-2,4,6-trimethyl-phenyl]-7,7-dimethyl-5-oxo-6,8-dihydro-4H-chromene-3-carbonitrile
@<TRIPOS>ATOM
      1 C1          4.3251    7.2739    1.6774 C.3       1 <0>        -0.1173
      2 C2          2.9469    7.0195    1.1234 C.ar      1 <0>        -0.0555
      3 C3          2.7516    6.0210    0.1872 C.ar      1 <0>        -0.1341
      4 C4          1.4867    5.7839   -0.3167 C.ar      1 <0>        -0.0532
      5 C5          0.4183    6.5521    0.1077 C.ar      1 <0>        -0.0883
      6 C6          0.6135    7.5503    1.0435 C.ar      1 <0>        -0.0307
      7 C7          1.8780    7.7840    1.5515 C.ar      1 <0>        -0.1030
      8 C8          2.0907    8.8720    2.5722 C.3       1 <0>         0.0984
      9 O1          1.9235    8.3329    3.8850 O.3       1 <0>        -0.3794
     10 C9          2.1049    9.2874    4.9328 C.3       1 <0>         0.0292
     11 C10        -0.5520    8.3835    1.5107 C.3       1 <0>        -0.1223
     12 C11        -0.9600    6.2970   -0.4456 C.3       1 <0>         0.0899
     13 H1         -1.6317    7.0903   -0.1174 H         1 <0>         0.1049
     14 C12        -0.8998    6.2846   -1.9475 C.2       1 <0>        -0.2665
     15 C13        -0.9081    5.1106   -2.6244 C.2       1 <0>         0.4333
     16 O2         -0.9665    3.9337   -1.9817 O.3       1 <0>        -0.2405
     17 C14        -1.4476    3.8802   -0.7255 C.2       1 <0>         0.1614
     18 C15        -1.4664    4.9694    0.0643 C.2       1 <0>        -0.2503
     19 C16        -1.9562    4.9090    1.3832 C.2       1 <0>         0.4026
     20 O3         -1.9760    5.9183    2.0588 O.2       1 <0>        -0.4419
     21 C17        -2.4522    3.6171    1.9745 C.3       1 <0>        -0.1517
     22 C18        -1.7349    2.4503    1.2870 C.3       1 <0>        -0.0553
     23 C19        -1.9675    2.5542   -0.2216 C.3       1 <0>        -0.0729
     24 C20        -2.2973    1.1246    1.8040 C.3       1 <0>        -0.1419
     25 C21        -0.2354    2.5228    1.5823 C.3       1 <0>        -0.1565
     26 N1         -0.8555    5.1254   -3.9961 N.pl3     1 <0>        -0.8325
     27 C22        -0.8327    7.5207   -2.6674 C.1       1 <0>         0.2718
     28 N2         -0.7795    8.5013   -3.2384 N.1       1 <0>        -0.4398
     29 C23         1.2727    4.6914   -1.3324 C.3       1 <0>        -0.1486
     30 H2          4.4781    6.6618    2.5661 H         1 <0>         0.0737
     31 H3          5.0718    7.0168    0.9261 H         1 <0>         0.0650
     32 H4          4.4221    8.3272    1.9405 H         1 <0>         0.0666
     33 H5          3.5868    5.4233   -0.1470 H         1 <0>         0.1204
     34 H6          3.0988    9.2739    2.4702 H         1 <0>         0.0581
     35 H7          1.3641    9.6684    2.4112 H         1 <0>         0.0595
     36 H8          3.1133    9.6979    4.8798 H         1 <0>         0.0400
     37 H9          1.3786   10.0924    4.8208 H         1 <0>         0.0409
     38 H10         1.9613    8.8000    5.8972 H         1 <0>         0.0865
     39 H11        -1.0553    7.8755    2.3333 H         1 <0>         0.0943
     40 H12        -0.1916    9.3548    1.8496 H         1 <0>         0.0610
     41 H13        -1.2522    8.5230    0.6870 H         1 <0>         0.0633
     42 H14        -3.4387    3.5413    1.8296 H         1 <0>         0.0951
     43 H15        -2.2413    3.5964    3.0437 H         1 <0>         0.1031
     44 H16        -1.4426    1.7431   -0.7263 H         1 <0>         0.1038
     45 H17        -3.0348    2.4800   -0.4300 H         1 <0>         0.1088
     46 H18        -2.1367    1.0567    2.8799 H         1 <0>         0.0669
     47 H19        -3.3654    1.0759    1.5922 H         1 <0>         0.0623
     48 H20        -1.7904    0.2969    1.3080 H         1 <0>         0.0649
     49 H21         0.2729    1.6960    1.0862 H         1 <0>         0.0644
     50 H22         0.1623    3.4680    1.2130 H         1 <0>         0.0627
     51 H23        -0.0733    2.4559    2.6581 H         1 <0>         0.0656
     52 H24        -0.8130    5.9702   -4.4708 H         1 <0>         0.4264
     53 H25        -0.8609    4.2909   -4.4907 H         1 <0>         0.4121
     54 H26         1.0344    5.1355   -2.2989 H         1 <0>         0.0739
     55 H27         2.1805    4.0946   -1.4208 H         1 <0>         0.0615
     56 H28         0.4485    4.0540   -1.0124 H         1 <0>         0.0892
@<TRIPOS>BOND
     1    1    2 1
     2    1   30 1
     3    1   31 1
     4    1   32 1
     5    2    7 ar
     6    2    3 ar
     7    3    4 ar
     8    3   33 1
     9    4    5 ar
    10    4   29 1
    11    5    6 ar
    12    5   12 1
    13    6    7 ar
    14    6   11 1
    15    7    8 1
    16    8    9 1
    17    8   34 1
    18    8   35 1
    19    9   10 1
    20   10   36 1
    21   10   37 1
    22   10   38 1
    23   11   39 1
    24   11   40 1
    25   11   41 1
    26   12   13 1
    27   12   18 1
    28   12   14 1
    29   14   15 2
    30   14   27 1
    31   15   16 1
    32   15   26 1
    33   16   17 1
    34   17   23 1
    35   17   18 2
    36   18   19 1
    37   19   20 2
    38   19   21 1
    39   21   22 1
    40   21   42 1
    41   21   43 1
    42   22   23 1
    43   22   24 1
    44   22   25 1
    45   23   44 1
    46   23   45 1
    47   24   46 1
    48   24   47 1
    49   24   48 1
    50   25   49 1
    51   25   50 1
    52   25   51 1
    53   26   52 1
    54   26   53 1
    55   27   28 3
    56   29   54 1
    57   29   55 1
    58   29   56 1
@<TRIPOS>MOLECULE
ZINC17090401
   53    58     0     0     0
SMALL
USER_CHARGES

@<TRIPOS>ATOM
      1 C1         -0.0189    1.5408    0.0105 C.3       1 <0>        -0.1167
      2 C2          1.4865    1.8759   -0.0021 C.3       1 <0>        -0.0629
      3 C3          2.1759    0.6697    0.6318 C.2       1 <0>        -0.0547
      4 C4          1.3253   -0.3688    0.6193 C.2       1 <0>        -0.2141
      5 S1          2.2301   -1.6984    1.3707 S.3       1 <0>         0.3222
      6 C5          3.6698   -0.9168    1.6908 C.2       1 <0>         0.0063
      7 C6          3.4894    0.3820    1.2277 C.2       1 <0>        -0.2143
      8 C7          4.6378    1.2984    1.3956 C.2       1 <0>         0.5686
      9 O1          4.5658    2.4536    1.0182 O.2       1 <0>        -0.4684
     10 N1          5.7630    0.8378    1.9716 N.am      1 <0>        -0.3098
     11 C8          5.8691   -0.4314    2.3976 C.2       1 <0>         0.5276
     12 S2          7.3305   -0.9512    3.1224 S.2       1 <0>        -0.4915
     13 N2          4.8530   -1.3048    2.2659 N.pl3     1 <0>        -0.5356
     14 H1          4.9577   -2.2157    2.5826 H         1 <0>         0.4540
     15 N3          6.8520    1.7047    2.1315 N.am      1 <0>        -0.5065
     16 C9          7.1417    2.2053    3.3488 C.2       1 <0>         0.5349
     17 O2          6.4597    1.9054    4.3058 O.2       1 <0>        -0.4933
     18 C10         8.3130    3.1378    3.5208 C.3       1 <0>        -0.1174
     19 C11         8.4202    3.5567    4.9884 C.3       1 <0>        -0.0328
     20 C12         7.1341    4.2702    5.4102 C.3       1 <0>        -0.1142
     21 C13         7.2413    4.6892    6.8778 C.3       1 <0>        -0.0826
     22 C14         8.4305    5.6359    7.0524 C.3       1 <0>        -0.1090
     23 C15         9.7165    4.9224    6.6306 C.3       1 <0>        -0.0835
     24 C16         9.6094    4.5034    5.1630 C.3       1 <0>        -0.1020
     25 C17         9.9205    3.6813    7.5017 C.3       1 <0>        -0.1092
     26 C18         8.7313    2.7346    7.3271 C.3       1 <0>        -0.0830
     27 C19         7.4452    3.4481    7.7490 C.3       1 <0>        -0.1056
     28 C20         8.6241    2.3156    5.8595 C.3       1 <0>        -0.1126
     29 C21         0.0021   -0.0041    0.0020 C.3       1 <0>        -0.0314
     30 H2         -0.4953    1.9194    0.9148 H         1 <0>         0.0809
     31 H3         -0.5124    1.9291   -0.8804 H         1 <0>         0.0905
     32 H4          1.8338    2.0143   -1.0259 H         1 <0>         0.0890
     33 H5          1.6784    2.7729    0.5868 H         1 <0>         0.0839
     34 H6          7.3974    1.9445    1.3660 H         1 <0>         0.4312
     35 H7          9.2292    2.6295    3.2202 H         1 <0>         0.1070
     36 H8          8.1677    4.0220    2.9002 H         1 <0>         0.1020
     37 H9          6.9888    5.1544    4.7896 H         1 <0>         0.0536
     38 H10         6.2869    3.5958    5.2858 H         1 <0>         0.0858
     39 H11         6.3251    5.1975    7.1784 H         1 <0>         0.0656
     40 H12         8.2852    6.5201    6.4318 H         1 <0>         0.0598
     41 H13         8.5068    5.9344    8.0980 H         1 <0>         0.0601
     42 H14        10.5637    5.5968    6.7550 H         1 <0>         0.0692
     43 H15        10.5256    3.9951    4.8624 H         1 <0>         0.0644
     44 H16         9.4641    5.3876    4.5424 H         1 <0>         0.0629
     45 H17        10.8367    3.1730    7.2012 H         1 <0>         0.0606
     46 H18         9.9968    3.9798    8.5473 H         1 <0>         0.0596
     47 H19         8.8766    1.8504    7.9477 H         1 <0>         0.0666
     48 H20         7.5215    3.7466    8.7945 H         1 <0>         0.0573
     49 H21         6.5980    2.7736    7.6246 H         1 <0>         0.0615
     50 H22         7.7769    1.6412    5.7351 H         1 <0>         0.0911
     51 H23         9.5403    1.8073    5.5590 H         1 <0>         0.0559
     52 H24        -0.8186   -0.3987    0.6011 H         1 <0>         0.0867
     53 H25        -0.0572   -0.3794   -1.0196 H         1 <0>         0.0925
@<TRIPOS>BOND
     1    1   29 1
     2    1    2 1
     3    1   30 1
     4    1   31 1
     5    2    3 1
     6    2   32 1
     7    2   33 1
     8    3    7 1
     9    3    4 2
    10    4    5 1
    11    4   29 1
    12    5    6 1
    13    6   13 1
    14    6    7 2
    15    7    8 1
    16    8    9 2
    17    8   10 am
    18   10   11 1
    19   10   15 1
    20   11   12 2
    21   11   13 1
    22   13   14 1
    23   15   16 am
    24   15   34 1
    25   16   17 2
    26   16   18 1
    27   18   19 1
    28   18   35 1
    29   18   36 1
    30   19   24 1
    31   19   28 1
    32   19   20 1
    33   20   21 1
    34   20   37 1
    35   20   38 1
    36   21   27 1
    37   21   22 1
    38   21   39 1
    39   22   23 1
    40   22   40 1
    41   22   41 1
    42   23   24 1
    43   23   25 1
    44   23   42 1
    45   24   43 1
    46   24   44 1
    47   25   26 1
    48   25   45 1
    49   25   46 1
    50   26   27 1
    51   26   28 1
    52   26   47 1
    53   27   48 1
    54   27   49 1
    55   28   50 1
    56   28   51 1
    57   29   52 1
    58   29   53 1
@<TRIPOS>MOLECULE
ZINC49121934
   29    31     0     0     0
SMALL
USER_CHARGES

@<TRIPOS>ATOM
      1 C1          0.1597    0.9995    1.1016 C.ar      1 <0>        -0.0040
      2 C2          1.3730    1.5194    1.4959 C.ar      1 <0>        -0.2010
      3 C3          2.4955    0.7004    1.5564 C.ar      1 <0>         0.2513
      4 C4          2.3968   -0.6452    1.2188 C.ar      1 <0>        -0.1963
      5 C5          1.1861   -1.1707    0.8238 C.ar      1 <0>        -0.0380
      6 C6          0.0576   -0.3510    0.7626 C.ar      1 <0>        -0.1169
      7 C7         -1.2432   -0.9120    0.3395 C.2       1 <0>         0.3252
      8 N1         -2.4330   -0.3954    0.5700 N.2       1 <0>        -0.3228
      9 N2         -3.3513   -1.1367    0.0644 N.2       1 <0>        -0.0280
     10 N3         -2.8353   -2.1643   -0.5174 N.2       1 <0>        -0.0578
     11 N4         -1.4409   -2.0610   -0.3696 N.pl3     1 <0>        -0.3526
     12 C8         -0.4653   -2.9477   -0.8452 C.ar      1 <0>         0.1594
     13 C9          0.5179   -2.4981   -1.7162 C.ar      1 <0>        -0.0669
     14 C10         1.4785   -3.3748   -2.1836 C.ar      1 <0>        -0.0693
     15 C11         1.4608   -4.6999   -1.7845 C.ar      1 <0>        -0.0659
     16 C12         0.4831   -5.1505   -0.9173 C.ar      1 <0>        -0.0714
     17 C13        -0.4767   -4.2769   -0.4416 C.ar      1 <0>        -0.0667
     18 Br1        -1.8087   -4.8924    0.7512 Br        1 <0>        -0.0033
     19 Br2         2.8181   -2.7635   -3.3700 Br        1 <0>        -0.0132
     20 N5          3.7221    1.2294    1.9558 N.pl3     1 <0>        -0.8653
     21 H1         -0.7125    1.6349    1.0591 H         1 <0>         0.1411
     22 H2          1.4527    2.5641    1.7580 H         1 <0>         0.1340
     23 H3          3.2702   -1.2788    1.2660 H         1 <0>         0.1310
     24 H4          1.1101   -2.2155    0.5614 H         1 <0>         0.1219
     25 H5          0.5318   -1.4644   -2.0286 H         1 <0>         0.1530
     26 H6          2.2121   -5.3833   -2.1516 H         1 <0>         0.1564
     27 H7          0.4719   -6.1851   -0.6077 H         1 <0>         0.1592
     28 H8          3.7920    2.1678    2.1912 H         1 <0>         0.4038
     29 H9          4.5055    0.6590    1.9984 H         1 <0>         0.4030
@<TRIPOS>BOND
     1    1    6 ar
     2    1    2 ar
     3    1   21 1
     4    2    3 ar
     5    2   22 1
     6    3    4 ar
     7    3   20 1
     8    4    5 ar
     9    4   23 1
    10    5    6 ar
    11    5   24 1
    12    6    7 1
    13    7   11 1
    14    7    8 2
    15    8    9 1
    16    9   10 2
    17   10   11 1
    18   11   12 1
    19   12   17 ar
    20   12   13 ar
    21   13   14 ar
    22   13   25 1
    23   14   15 ar
    24   14   19 1
    25   15   16 ar
    26   15   26 1
    27   16   17 ar
    28   16   27 1
    29   17   18 1
    30   20   28 1
    31   20   29 1
@<TRIPOS>MOLECULE
ZINC20086669
   37    40     0     0     0
SMALL
USER_CHARGES

@<TRIPOS>ATOM
      1 C1         -0.0167    1.3780    0.0096 C.ar      1 <0>        -0.1030
      2 C2          1.1709    2.0859    0.0021 C.ar      1 <0>        -0.1104
      3 C3          2.3773    1.4120   -0.0131 C.ar      1 <0>        -0.0900
      4 C4          2.3966    0.0286   -0.0207 C.ar      1 <0>        -0.0725
      5 C5          1.2084   -0.6791   -0.0132 C.ar      1 <0>        -0.0536
      6 C6          0.0021   -0.0041    0.0020 C.ar      1 <0>        -0.1014
      7 C7          1.2287   -2.1859   -0.0220 C.3       1 <0>         0.0726
      8 H1          2.2619   -2.5329   -0.0340 H         1 <0>         0.1216
      9 C8          0.5455   -2.7001    1.2140 C.2       1 <0>        -0.2668
     10 C9         -0.7187   -3.1865    1.1536 C.2       1 <0>         0.4336
     11 O1         -1.3965   -3.2226   -0.0053 O.3       1 <0>        -0.2232
     12 C10        -0.7340   -3.1718   -1.1827 C.2       1 <0>         0.0847
     13 C11         0.5192   -2.6876   -1.2542 C.2       1 <0>        -0.1683
     14 C12         1.2256   -2.6376   -2.5414 C.2       1 <0>         0.4302
     15 O2          2.3593   -2.2007   -2.5929 O.2       1 <0>        -0.3930
     16 C13         0.5651   -3.1163   -3.7743 C.ar      1 <0>        -0.1147
     17 C14         1.2201   -3.0715   -4.9983 C.ar      1 <0>        -0.0632
     18 C15         0.5785   -3.5261   -6.1403 C.ar      1 <0>        -0.0883
     19 C16        -0.7086   -4.0235   -6.0694 C.ar      1 <0>        -0.0985
     20 C17        -1.3753   -4.0750   -4.8555 C.ar      1 <0>        -0.0544
     21 C18        -0.7447   -3.6227   -3.7020 C.ar      1 <0>        -0.1227
     22 C19        -1.4236   -3.6640   -2.4028 C.2       1 <0>         0.4469
     23 O3         -2.5540   -4.1011   -2.3270 O.2       1 <0>        -0.3959
     24 N1         -1.3169   -3.6515    2.2985 N.pl3     1 <0>        -0.8228
     25 C20         1.2367   -2.6763    2.4679 C.1       1 <0>         0.2700
     26 N2          1.7851   -2.6575    3.4626 N.1       1 <0>        -0.4286
     27 Br1         4.0470   -0.8942   -0.0421 Br        1 <0>        -0.0362
     28 H2         -0.9592    1.9050    0.0260 H         1 <0>         0.1308
     29 H3          1.1558    3.1658    0.0077 H         1 <0>         0.1332
     30 H4          3.3049    1.9651   -0.0193 H         1 <0>         0.1350
     31 H5         -0.9258   -0.5567    0.0083 H         1 <0>         0.1239
     32 H6          2.2260   -2.6833   -5.0604 H         1 <0>         0.1484
     33 H7          1.0882   -3.4908   -7.0918 H         1 <0>         0.1424
     34 H8         -1.1984   -4.3741   -6.9659 H         1 <0>         0.1430
     35 H9         -2.3813   -4.4647   -4.8059 H         1 <0>         0.1479
     36 H10        -0.8355   -3.6300    3.1403 H         1 <0>         0.4285
     37 H11        -2.2209   -4.0014    2.2655 H         1 <0>         0.4149
@<TRIPOS>BOND
     1    1    6 ar
     2    1    2 ar
     3    1   28 1
     4    2    3 ar
     5    2   29 1
     6    3    4 ar
     7    3   30 1
     8    4    5 ar
     9    4   27 1
    10    5    6 ar
    11    5    7 1
    12    6   31 1
    13    7    8 1
    14    7   13 1
    15    7    9 1
    16    9   10 2
    17    9   25 1
    18   10   11 1
    19   10   24 1
    20   11   12 1
    21   12   22 1
    22   12   13 2
    23   13   14 1
    24   14   15 2
    25   14   16 1
    26   16   21 ar
    27   16   17 ar
    28   17   18 ar
    29   17   32 1
    30   18   19 ar
    31   18   33 1
    32   19   20 ar
    33   19   34 1
    34   20   21 ar
    35   20   35 1
    36   21   22 1
    37   22   23 2
    38   24   36 1
    39   24   37 1
    40   25   26 3
@<TRIPOS>MOLECULE
ZINC67281503
   44    46     0     0     0
SMALL
USER_CHARGES

@<TRIPOS>ATOM
      1 C1         -0.0864    1.1979    0.3551 C.ar      1 <0>        -0.1242
      2 C2          1.0797    1.9392    0.3152 C.ar      1 <0>        -0.1177
      3 C3          2.3024    1.3001    0.2294 C.ar      1 <0>        -0.1177
      4 C4          2.3591   -0.0803    0.1840 C.ar      1 <0>        -0.0802
      5 C5          1.1931   -0.8217    0.2247 C.ar      1 <0>        -0.1142
      6 C6         -0.0297   -0.1825    0.3091 C.ar      1 <0>        -0.1175
      7 C7          3.6920   -0.7770    0.0894 C.3       1 <0>        -0.0427
      8 H1          4.4762   -0.0202    0.0696 H         1 <0>         0.0770
      9 C8          3.8792   -1.6360    1.3364 C.3       1 <0>        -0.1074
     10 C9          5.3533   -1.8138    1.6045 C.3       1 <0>        -0.1323
     11 C10         5.8656   -3.0922    0.9166 C.3       1 <0>         0.1275
     12 N1          5.2863   -3.2700   -0.4293 N.am      1 <0>        -0.6107
     13 C11         5.1310   -2.1777   -1.3637 C.3       1 <0>         0.1048
     14 C12         3.7372   -1.5295   -1.1736 C.3       1 <0>        -0.1341
     15 C13         4.8858   -4.5015   -0.8028 C.2       1 <0>         0.7045
     16 O1          5.0915   -5.4542   -0.0758 O.2       1 <0>        -0.5665
     17 N2          4.2575   -4.6770   -1.9821 N.am      1 <0>        -0.6555
     18 C14         3.7270   -5.9318   -2.3139 C.2       1 <0>         0.0491
     19 C15         3.6937   -6.9363   -1.3861 C.2       1 <0>        -0.0633
     20 C16         3.1577   -8.1821   -1.7441 C.2       1 <0>        -0.1684
     21 C17         2.6810   -8.3798   -2.9951 C.2       1 <0>         0.1368
     22 N3          2.7135   -7.3819   -3.9185 N.am      1 <0>        -0.5908
     23 H2          2.3671   -7.5425   -4.8102 H         1 <0>         0.4269
     24 C18         3.2156   -6.1716   -3.6077 C.2       1 <0>         0.5216
     25 O2          3.2333   -5.2841   -4.4456 O.2       1 <0>        -0.5421
     26 Br1         3.1017   -9.5860   -0.4784 Br        1 <0>        -0.0159
     27 H3         -1.0414    1.6971    0.4266 H         1 <0>         0.1207
     28 H4          1.0354    3.0177    0.3508 H         1 <0>         0.1214
     29 H5          3.2134    1.8793    0.1976 H         1 <0>         0.1205
     30 H6          1.2373   -1.9002    0.1888 H         1 <0>         0.1176
     31 H7         -0.9407   -0.7617    0.3405 H         1 <0>         0.1206
     32 H8          3.4109   -1.1453    2.1896 H         1 <0>         0.0684
     33 H9          3.4180   -2.6110    1.1789 H         1 <0>         0.0672
     34 H10         5.8975   -0.9522    1.2177 H         1 <0>         0.0690
     35 H11         5.5185   -1.8906    2.6792 H         1 <0>         0.0818
     36 H12         6.9508   -3.0371    0.8303 H         1 <0>         0.0665
     37 H13         5.6044   -3.9538    1.5310 H         1 <0>         0.0941
     38 H14         5.9069   -1.4334   -1.1841 H         1 <0>         0.0901
     39 H15         5.2201   -2.5558   -2.3821 H         1 <0>         0.0766
     40 H16         2.9742   -2.3077   -1.1575 H         1 <0>         0.0689
     41 H17         3.5403   -0.8520   -2.0045 H         1 <0>         0.0807
     42 H18         4.1722   -3.9353   -2.6013 H         1 <0>         0.4166
     43 H19         4.0761   -6.7723   -0.3894 H         1 <0>         0.1971
     44 H20         2.2701   -9.3419   -3.2635 H         1 <0>         0.1755
@<TRIPOS>BOND
     1    1    6 ar
     2    1    2 ar
     3    1   27 1
     4    2    3 ar
     5    2   28 1
     6    3    4 ar
     7    3   29 1
     8    4    5 ar
     9    4    7 1
    10    5    6 ar
    11    5   30 1
    12    6   31 1
    13    7    8 1
    14    7   14 1
    15    7    9 1
    16    9   10 1
    17    9   32 1
    18    9   33 1
    19   10   11 1
    20   10   34 1
    21   10   35 1
    22   11   12 1
    23   11   36 1
    24   11   37 1
    25   12   13 1
    26   12   15 am
    27   13   14 1
    28   13   38 1
    29   13   39 1
    30   14   40 1
    31   14   41 1
    32   15   16 2
    33   15   17 am
    34   17   18 1
    35   17   42 1
    36   18   24 1
    37   18   19 2
    38   19   20 1
    39   19   43 1
    40   20   21 2
    41   20   26 1
    42   21   22 1
    43   21   44 1
    44   22   23 1
    45   22   24 am
    46   24   25 2
@<TRIPOS>MOLECULE
ZINC01135828
   35    37     0     0     0
SMALL
USER_CHARGES
2-[3-(4-bromophenyl)-4-oxo-chromen-7-yl]oxyacetamide
@<TRIPOS>ATOM
      1 C1          1.5782   -1.1225    8.9933 C.ar      1 <0>        -0.0830
      2 C2          2.0392   -1.4286   10.2575 C.ar      1 <0>        -0.0876
      3 C3          2.2049   -0.4264   11.1978 C.ar      1 <0>        -0.0882
      4 C4          1.9159    0.8879   10.8738 C.ar      1 <0>        -0.0886
      5 C5          1.4598    1.2054    9.6107 C.ar      1 <0>        -0.1071
      6 C6          1.2908    0.2000    8.6603 C.ar      1 <0>        -0.0087
      7 C7          0.8009    0.5355    7.3012 C.2       1 <0>        -0.2524
      8 C8         -0.3102    1.2986    7.1346 C.2       1 <0>         0.1432
      9 O1         -0.7851    1.6229    5.9294 O.3       1 <0>        -0.2152
     10 C9         -0.2103    1.2272    4.7765 C.ar      1 <0>         0.1882
     11 C10        -0.7525    1.5982    3.5529 C.ar      1 <0>        -0.1750
     12 C11        -0.1494    1.1825    2.3782 C.ar      1 <0>         0.1951
     13 C12         0.9956    0.3891    2.4107 C.ar      1 <0>        -0.2350
     14 C13         1.5446    0.0198    3.6053 C.ar      1 <0>         0.0139
     15 C14         0.9483    0.4313    4.7981 C.ar      1 <0>        -0.2562
     16 C15         1.5097    0.0472    6.1059 C.2       1 <0>         0.4335
     17 O2          2.5117   -0.6414    6.1939 O.2       1 <0>        -0.4545
     18 O3         -0.6816    1.5467    1.1837 O.3       1 <0>        -0.2791
     19 C16        -0.0127    1.0858    0.0080 C.3       1 <0>         0.0353
     20 C17        -0.7416    1.5850   -1.2129 C.2       1 <0>         0.5197
     21 O4         -1.7359    2.2682   -1.0884 O.2       1 <0>        -0.5149
     22 N1         -0.2884    1.2723   -2.4431 N.am      1 <0>        -0.8484
     23 Br1         2.8290   -0.8543   12.9308 Br        1 <0>        -0.0480
     24 H1          1.4447   -1.9058    8.2619 H         1 <0>         0.1327
     25 H2          2.2662   -2.4525   10.5153 H         1 <0>         0.1361
     26 H3          2.0472    1.6662   11.6110 H         1 <0>         0.1366
     27 H4          1.2339    2.2311    9.3591 H         1 <0>         0.1339
     28 H5         -0.8301    1.6567    8.0109 H         1 <0>         0.2057
     29 H6         -1.6425    2.2091    3.5180 H         1 <0>         0.1566
     30 H7          1.4533    0.0678    1.4867 H         1 <0>         0.1429
     31 H8          2.4347   -0.5916    3.6270 H         1 <0>         0.1481
     32 H9          0.0021   -0.0041    0.0020 H         1 <0>         0.1020
     33 H10         1.0099    1.4631    0.0003 H         1 <0>         0.1020
     34 H11         0.5068    0.7259   -2.5426 H         1 <0>         0.4045
     35 H12        -0.7576    1.5936   -3.2289 H         1 <0>         0.4119
@<TRIPOS>BOND
     1    1    6 ar
     2    1    2 ar
     3    1   24 1
     4    2    3 ar
     5    2   25 1
     6    3    4 ar
     7    3   23 1
     8    4    5 ar
     9    4   26 1
    10    5    6 ar
    11    5   27 1
    12    6    7 1
    13    7   16 1
    14    7    8 2
    15    8    9 1
    16    8   28 1
    17    9   10 1
    18   10   15 ar
    19   10   11 ar
    20   11   12 ar
    21   11   29 1
    22   12   13 ar
    23   12   18 1
    24   13   14 ar
    25   13   30 1
    26   14   15 ar
    27   14   31 1
    28   15   16 1
    29   16   17 2
    30   18   19 1
    31   19   20 1
    32   19   32 1
    33   19   33 1
    34   20   21 2
    35   20   22 am
    36   22   34 1
    37   22   35 1
@<TRIPOS>MOLECULE
ZINC16929871
   39    41     0     0     0
SMALL
USER_CHARGES
2-hydroxy-N-[(5Z)-5-(o-tolylmethylene)-4-oxo-2-thioxo-thiazolidin-3-yl]benzamide
@<TRIPOS>ATOM
      1 C1          5.5086    4.2158    4.0599 C.3       1 <0>        -0.1304
      2 C2          6.0315    4.1806    2.6470 C.ar      1 <0>        -0.0368
      3 C3          7.1981    4.8414    2.3250 C.ar      1 <0>        -0.1245
      4 C4          7.6772    4.8147    1.0268 C.ar      1 <0>        -0.0814
      5 C5          6.9937    4.1212    0.0428 C.ar      1 <0>        -0.1225
      6 C6          5.8288    3.4510    0.3493 C.ar      1 <0>        -0.0835
      7 C7          5.3376    3.4730    1.6596 C.ar      1 <0>        -0.1084
      8 C8          4.0958    2.7614    1.9952 C.2       1 <0>         0.1030
      9 C9          3.2386    2.3923    1.0112 C.2       1 <0>        -0.2472
     10 C10         2.0355    1.5357    1.0815 C.2       1 <0>         0.5480
     11 O1          1.6673    1.0344    2.1273 O.2       1 <0>        -0.4468
     12 N1          1.3799    1.3428   -0.0507 N.am      1 <0>        -0.3209
     13 C11         1.7944    1.8962   -1.2084 C.2       1 <0>         0.2535
     14 S1          1.0917    1.7590   -2.7635 S.2       1 <0>        -0.2976
     15 S2          3.2520    2.8083   -0.7273 S.3       1 <0>         0.1095
     16 N2          0.2315    0.5403   -0.0483 N.am      1 <0>        -0.5255
     17 C12        -0.9876    1.1081   -0.1371 C.2       1 <0>         0.5755
     18 O2         -1.0909    2.3172   -0.2142 O.2       1 <0>        -0.4879
     19 C13        -2.1966    0.2627   -0.1407 C.ar      1 <0>        -0.1600
     20 C14        -2.0823   -1.1272   -0.0581 C.ar      1 <0>        -0.0663
     21 C15        -3.2156   -1.9109   -0.0562 C.ar      1 <0>        -0.1346
     22 C16        -4.4690   -1.3275   -0.1474 C.ar      1 <0>        -0.0670
     23 C17        -4.5961    0.0443   -0.2353 C.ar      1 <0>        -0.1535
     24 C18        -3.4662    0.8489   -0.2329 C.ar      1 <0>         0.1801
     25 O3         -3.5895    2.1970   -0.3197 O.3       1 <0>        -0.4785
     26 H1          5.9262    3.3810    4.6228 H         1 <0>         0.0828
     27 H2          5.7998    5.1542    4.5319 H         1 <0>         0.0784
     28 H3          4.4214    4.1377    4.0470 H         1 <0>         0.0719
     29 H4          7.7370    5.3851    3.0868 H         1 <0>         0.1336
     30 H5          8.5891    5.3381    0.7801 H         1 <0>         0.1327
     31 H6          7.3740    4.1055   -0.9679 H         1 <0>         0.1347
     32 H7          5.2966    2.9107   -0.4196 H         1 <0>         0.1326
     33 H8          3.8661    2.5326    3.0254 H         1 <0>         0.1657
     34 H9          0.3140   -0.4242    0.0131 H         1 <0>         0.4280
     35 H10        -1.1071   -1.5866    0.0083 H         1 <0>         0.1286
     36 H11        -3.1263   -2.9850    0.0126 H         1 <0>         0.1367
     37 H12        -5.3518   -1.9497   -0.1501 H         1 <0>         0.1368
     38 H13        -5.5765    0.4917   -0.3065 H         1 <0>         0.1412
     39 H14        -3.5859    2.5348   -1.2258 H         1 <0>         0.4003
@<TRIPOS>BOND
     1    1    2 1
     2    1   26 1
     3    1   27 1
     4    1   28 1
     5    2    7 ar
     6    2    3 ar
     7    3    4 ar
     8    3   29 1
     9    4    5 ar
    10    4   30 1
    11    5    6 ar
    12    5   31 1
    13    6    7 ar
    14    6   32 1
    15    7    8 1
    16    8    9 2
    17    8   33 1
    18    9   15 1
    19    9   10 1
    20   10   11 2
    21   10   12 am
    22   12   13 1
    23   12   16 1
    24   13   14 2
    25   13   15 1
    26   16   17 am
    27   16   34 1
    28   17   18 2
    29   17   19 1
    30   19   24 ar
    31   19   20 ar
    32   20   21 ar
    33   20   35 1
    34   21   22 ar
    35   21   36 1
    36   22   23 ar
    37   22   37 1
    38   23   24 ar
    39   23   38 1
    40   24   25 1
    41   25   39 1
@<TRIPOS>MOLECULE
ZINC43573719
   48    50     0     0     0
SMALL
USER_CHARGES

@<TRIPOS>ATOM
      1 C1          1.0655   -0.2479   -0.6780 C.ar      1 <0>        -0.0868
      2 C2          2.1485    0.6068   -0.7260 C.ar      1 <0>        -0.1356
      3 C3          2.0701    1.8609   -0.1348 C.ar      1 <0>         0.1490
      4 C4          0.9023    2.2551    0.5048 C.ar      1 <0>        -0.1378
      5 C5         -0.1807    1.4003    0.5528 C.ar      1 <0>        -0.1182
      6 C6         -0.1023    0.1463   -0.0384 C.ar      1 <0>         0.1403
      7 N1         -1.2016   -0.7210    0.0101 N.am      1 <0>        -0.6858
      8 C7         -1.0069   -2.0507    0.1120 C.2       1 <0>         0.7044
      9 O1          0.1166   -2.4909    0.2624 O.2       1 <0>        -0.5671
     10 N2         -2.0574   -2.8926    0.0473 N.am      1 <0>        -0.7375
     11 C8         -1.8457   -4.3379    0.1582 C.3       1 <0>         0.1705
     12 H1         -0.9009   -4.6042   -0.3157 H         1 <0>         0.1012
     13 C9         -1.8054   -4.7357    1.6350 C.3       1 <0>        -0.1370
     14 C10        -3.1316   -4.3620    2.3003 C.3       1 <0>        -0.1124
     15 C11        -4.2770   -5.1000    1.6044 C.3       1 <0>        -0.1211
     16 C12        -4.3173   -4.7022    0.1276 C.3       1 <0>        -0.1321
     17 H2         -4.4748   -3.6268    0.0451 H         1 <0>         0.1095
     18 C13        -2.9911   -5.0760   -0.5377 C.3       1 <0>        -0.1288
     19 C14        -5.4627   -5.4403   -0.5683 C.3       1 <0>         0.4535
     20 F1         -6.6753   -5.0986    0.0400 F         1 <0>        -0.1824
     21 F2         -5.4996   -5.0766   -1.9187 F         1 <0>        -0.1828
     22 F3         -5.2606   -6.8205   -0.4624 F         1 <0>        -0.1800
     23 N3          3.1693    2.7281   -0.1831 N.am      1 <0>        -0.5599
     24 C15         3.1568    4.1093    0.3130 C.3       1 <0>         0.0942
     25 C16         4.6421    4.5091    0.4563 C.3       1 <0>        -0.1321
     26 C17         5.3210    3.5732   -0.5704 C.3       1 <0>        -0.1538
     27 C18         4.3725    2.4002   -0.6847 C.2       1 <0>         0.5140
     28 O2          4.6558    1.3217   -1.1619 O.2       1 <0>        -0.5083
     29 H3          1.1249   -1.2215   -1.1417 H         1 <0>         0.1382
     30 H4          3.0569    0.3001   -1.2231 H         1 <0>         0.1577
     31 H5          0.8414    3.2303    0.9650 H         1 <0>         0.1295
     32 H6         -1.0889    1.7068    1.0506 H         1 <0>         0.1295
     33 H7         -2.1028   -0.3645   -0.0298 H         1 <0>         0.4054
     34 H8         -2.9536   -2.5414   -0.0726 H         1 <0>         0.3942
     35 H9         -1.6479   -5.8111    1.7175 H         1 <0>         0.0783
     36 H10        -0.9894   -4.2099    2.1308 H         1 <0>         0.0762
     37 H11        -3.1028   -4.6453    3.3524 H         1 <0>         0.0737
     38 H12        -3.2891   -3.2866    2.2178 H         1 <0>         0.0646
     39 H13        -4.1195   -6.1754    1.6869 H         1 <0>         0.0808
     40 H14        -5.2218   -4.8337    2.0783 H         1 <0>         0.0786
     41 H15        -3.0199   -4.7926   -1.5898 H         1 <0>         0.0861
     42 H16        -2.8336   -6.1514   -0.4552 H         1 <0>         0.0975
     43 H17         2.6577    4.7626   -0.4026 H         1 <0>         0.0826
     44 H18         2.6580    4.1579    1.2810 H         1 <0>         0.0873
     45 H19         4.7919    5.5552    0.1893 H         1 <0>         0.0975
     46 H20         5.0041    4.3098    1.4649 H         1 <0>         0.0866
     47 H21         5.4297    4.0759   -1.5314 H         1 <0>         0.1106
     48 H22         6.2911    3.2411   -0.2006 H         1 <0>         0.1081
@<TRIPOS>BOND
     1    1    6 ar
     2    1    2 ar
     3    1   29 1
     4    2    3 ar
     5    2   30 1
     6    3    4 ar
     7    3   23 1
     8    4    5 ar
     9    4   31 1
    10    5    6 ar
    11    5   32 1
    12    6    7 1
    13    7    8 am
    14    7   33 1
    15    8    9 2
    16    8   10 am
    17   10   11 1
    18   10   34 1
    19   11   12 1
    20   11   18 1
    21   11   13 1
    22   13   14 1
    23   13   35 1
    24   13   36 1
    25   14   15 1
    26   14   37 1
    27   14   38 1
    28   15   16 1
    29   15   39 1
    30   15   40 1
    31   16   17 1
    32   16   18 1
    33   16   19 1
    34   18   41 1
    35   18   42 1
    36   19   20 1
    37   19   21 1
    38   19   22 1
    39   23   27 am
    40   23   24 1
    41   24   25 1
    42   24   43 1
    43   24   44 1
    44   25   26 1
    45   25   45 1
    46   25   46 1
    47   26   27 1
    48   26   47 1
    49   26   48 1
    50   27   28 2
@<TRIPOS>MOLECULE
ZINC59372186
   39    40     0     0     0
SMALL
USER_CHARGES

@<TRIPOS>ATOM
      1 C1          1.2068    1.2349   -0.1721 C.3       1 <0>        -0.1175
      2 C2          0.5776   -0.1317   -0.0847 C.ar      1 <0>        -0.0662
      3 C3         -0.0270   -0.6862   -1.1983 C.ar      1 <0>        -0.1273
      4 C4         -0.6055   -1.9398   -1.1226 C.ar      1 <0>        -0.1000
      5 C5         -0.5813   -2.6427    0.0661 C.ar      1 <0>        -0.1299
      6 C6          0.0250   -2.0887    1.1864 C.ar      1 <0>         0.1397
      7 C7          0.6103   -0.8311    1.1053 C.ar      1 <0>        -0.1075
      8 C8          1.2747   -0.2287    2.3164 C.3       1 <0>        -0.1217
      9 N1          0.0513   -2.7970    2.3906 N.am      1 <0>        -0.6332
     10 C9         -0.0322   -4.1421    2.3833 C.2       1 <0>         0.5151
     11 O1         -0.0292   -4.7447    1.3293 O.2       1 <0>        -0.4926
     12 C10        -0.1283   -4.8902    3.6696 C.2       1 <0>         0.5309
     13 O2         -0.1314   -4.2874    4.7238 O.2       1 <0>        -0.4750
     14 N2         -0.2118   -6.2354    3.6622 N.am      1 <0>        -0.5568
     15 N3         -0.3022   -6.9383    4.8708 N.2       1 <0>        -0.2283
     16 C11        -0.3826   -8.2346    4.8636 C.2       1 <0>         0.1256
     17 C12        -0.4777   -8.9742    6.1353 C.ar      1 <0>        -0.0544
     18 C13        -0.4872   -8.2834    7.3501 C.ar      1 <0>        -0.0615
     19 C14        -0.5763   -8.9814    8.5362 C.ar      1 <0>        -0.1167
     20 C15        -0.6557  -10.3630    8.5258 C.ar      1 <0>        -0.0711
     21 C16        -0.6463  -11.0545    7.3265 C.ar      1 <0>        -0.0969
     22 C17        -0.5644  -10.3684    6.1315 C.ar      1 <0>        -0.0587
     23 Br1        -0.7547  -12.9424    7.3250 Br        1 <0>        -0.0415
     24 H1          2.2507    1.1359   -0.4695 H         1 <0>         0.0731
     25 H2          0.6738    1.8338   -0.9106 H         1 <0>         0.0695
     26 H3          1.1509    1.7235    0.8007 H         1 <0>         0.0703
     27 H4         -0.0476   -0.1387   -2.1290 H         1 <0>         0.1256
     28 H5         -1.0770   -2.3698   -1.9939 H         1 <0>         0.1284
     29 H6         -1.0337   -3.6216    0.1247 H         1 <0>         0.1443
     30 H7          0.5426    0.3450    2.8847 H         1 <0>         0.0753
     31 H8          1.6785   -1.0242    2.9427 H         1 <0>         0.0638
     32 H9          2.0835    0.4288    1.9977 H         1 <0>         0.0778
     33 H10         0.1296   -2.3205    3.2319 H         1 <0>         0.4246
     34 H11        -0.2094   -6.7169    2.8201 H         1 <0>         0.4020
     35 H12        -0.3799   -8.7706    3.9261 H         1 <0>         0.1303
     36 H13        -0.4246   -7.2053    7.3601 H         1 <0>         0.1431
     37 H14        -0.5837   -8.4485    9.4755 H         1 <0>         0.1391
     38 H15        -0.7249  -10.9043    9.4578 H         1 <0>         0.1375
     39 H16        -0.5620  -10.9084    5.1962 H         1 <0>         0.1406
@<TRIPOS>BOND
     1    1    2 1
     2    1   24 1
     3    1   25 1
     4    1   26 1
     5    2    7 ar
     6    2    3 ar
     7    3    4 ar
     8    3   27 1
     9    4    5 ar
    10    4   28 1
    11    5    6 ar
    12    5   29 1
    13    6    7 ar
    14    6    9 1
    15    7    8 1
    16    8   30 1
    17    8   31 1
    18    8   32 1
    19    9   10 am
    20    9   33 1
    21   10   11 2
    22   10   12 1
    23   12   13 2
    24   12   14 am
    25   14   15 1
    26   14   34 1
    27   15   16 2
    28   16   17 1
    29   16   35 1
    30   17   22 ar
    31   17   18 ar
    32   18   19 ar
    33   18   36 1
    34   19   20 ar
    35   19   37 1
    36   20   21 ar
    37   20   38 1
    38   21   22 ar
    39   21   23 1
    40   22   39 1
@<TRIPOS>MOLECULE
ZINC66176769
   54    56     0     0     0
SMALL
USER_CHARGES

@<TRIPOS>ATOM
      1 C1         -0.0256    1.5117    0.0123 C.3       1 <0>        -0.1166
      2 C2          1.4080    2.0460   -0.0023 C.3       1 <0>        -0.1207
      3 C3          2.1517    1.5448    1.2373 C.3       1 <0>        -0.1281
      4 C4          2.1776    0.0150    1.2326 C.3       1 <0>         0.1687
      5 H1          2.7074   -0.3421    2.1157 H         1 <0>         0.1023
      6 C5          0.7440   -0.5193    1.2473 C.3       1 <0>        -0.1428
      7 H2          0.2341   -0.1673    2.1440 H         1 <0>         0.1318
      8 C6          0.0002   -0.0181    0.0077 C.3       1 <0>        -0.1192
      9 C7          0.7698   -2.0491    1.2427 C.3       1 <0>         0.4549
     10 F1          1.4499   -2.5074    2.3761 F         1 <0>        -0.1791
     11 F2         -0.5410   -2.5377    1.2560 F         1 <0>        -0.1817
     12 F3          1.4242   -2.5010    0.0917 F         1 <0>        -0.1810
     13 N1          2.8628   -0.4582    0.0274 N.am      1 <0>        -0.7419
     14 C8          4.2063   -0.5642    0.0137 C.2       1 <0>         0.7129
     15 O1          4.8560   -0.1826    0.9680 O.2       1 <0>        -0.5832
     16 N2          4.8297   -1.0933   -1.0577 N.am      1 <0>        -0.6280
     17 C9          4.0718   -1.4475   -2.2655 C.3       1 <0>         0.1172
     18 C10         4.7207   -0.7637   -3.4730 C.3       1 <0>        -0.1420
     19 C11         6.2037   -1.1372   -3.5296 C.3       1 <0>         0.1454
     20 C12         6.9044   -0.6444   -2.2614 C.3       1 <0>        -0.1437
     21 C13         6.2811   -1.3212   -1.0423 C.3       1 <0>         0.1321
     22 N3          6.8202   -0.5115   -4.7022 N.am      1 <0>        -0.7278
     23 C14         7.9232   -1.0548   -5.2541 C.2       1 <0>         0.5239
     24 O2          8.4055   -2.0615   -4.7800 O.2       1 <0>        -0.5353
     25 C15         8.5573   -0.4112   -6.4603 C.3       1 <0>        -0.1408
     26 C16         7.8849   -0.7960   -7.7887 C.3       1 <0>        -0.1231
     27 C17         9.2976   -0.8685   -8.3920 C.3       1 <0>        -0.1431
     28 C18         9.8058   -1.1514   -6.9684 C.3       1 <0>        -0.1185
     29 H3         -0.5355    1.8638    0.9091 H         1 <0>         0.0708
     30 H4         -0.5555    1.8688   -0.8707 H         1 <0>         0.0734
     31 H5          1.9178    1.6939   -0.8991 H         1 <0>         0.0626
     32 H6          1.3896    3.1358    0.0010 H         1 <0>         0.0690
     33 H7          3.1731    1.9254    1.2268 H         1 <0>         0.0806
     34 H8          1.6419    1.8968    2.1340 H         1 <0>         0.0771
     35 H9         -1.0211   -0.3988    0.0181 H         1 <0>         0.0835
     36 H10         0.5101   -0.3702   -0.8890 H         1 <0>         0.0709
     37 H11         2.3496   -0.6952   -0.7609 H         1 <0>         0.3967
     38 H12         4.0898   -2.5284   -2.4043 H         1 <0>         0.0760
     39 H13         3.0413   -1.1073   -2.1630 H         1 <0>         0.0791
     40 H14         4.2271   -1.0943   -4.3869 H         1 <0>         0.0842
     41 H15         4.6212    0.3174   -3.3759 H         1 <0>         0.0746
     42 H16         6.3030   -2.2202   -3.6019 H         1 <0>         0.0911
     43 H17         7.9651   -0.8901   -2.3129 H         1 <0>         0.0824
     44 H18         6.7843    0.4355   -2.1756 H         1 <0>         0.0692
     45 H19         6.7079   -0.8977   -0.1332 H         1 <0>         0.0992
     46 H20         6.4834   -2.3916   -1.0792 H         1 <0>         0.0697
     47 H21         6.4344    0.2937   -5.0813 H         1 <0>         0.4002
     48 H22         8.7051    0.6619   -6.3389 H         1 <0>         0.1126
     49 H23         7.3739   -1.7582   -7.7568 H         1 <0>         0.0846
     50 H24         7.2694   -0.0025   -8.2124 H         1 <0>         0.0751
     51 H25         9.4366   -1.7032   -9.0791 H         1 <0>         0.0734
     52 H26         9.6473    0.0798   -8.8001 H         1 <0>         0.0840
     53 H27        10.7410   -0.6448   -6.7300 H         1 <0>         0.0723
     54 H28         9.8199   -2.2107   -6.7123 H         1 <0>         0.0951
@<TRIPOS>BOND
     1    1    8 1
     2    1    2 1
     3    1   29 1
     4    1   30 1
     5    2    3 1
     6    2   31 1
     7    2   32 1
     8    3    4 1
     9    3   33 1
    10    3   34 1
    11    4    5 1
    12    4    6 1
    13    4   13 1
    14    6    7 1
    15    6    8 1
    16    6    9 1
    17    8   35 1
    18    8   36 1
    19    9   10 1
    20    9   11 1
    21    9   12 1
    22   13   14 am
    23   13   37 1
    24   14   15 2
    25   14   16 am
    26   16   21 1
    27   16   17 1
    28   17   18 1
    29   17   38 1
    30   17   39 1
    31   18   19 1
    32   18   40 1
    33   18   41 1
    34   19   20 1
    35   19   22 1
    36   19   42 1
    37   20   21 1
    38   20   43 1
    39   20   44 1
    40   21   45 1
    41   21   46 1
    42   22   23 am
    43   22   47 1
    44   23   24 2
    45   23   25 1
    46   25   28 1
    47   25   26 1
    48   25   48 1
    49   26   27 1
    50   26   49 1
    51   26   50 1
    52   27   28 1
    53   27   51 1
    54   27   52 1
    55   28   53 1
    56   28   54 1
@<TRIPOS>MOLECULE
ZINC04914948
   40    42     0     0     0
SMALL
USER_CHARGES
4-amino-2-(2-chloro-6-fluoro-phenyl)-7-methyl-9-propyl-5-oxa-7,8-diazabicyclo[4.3.0]nona-3,8,10-triene-3-carbonitrile
@<TRIPOS>ATOM
      1 C1         -2.9389    6.3591   -1.3851 C.3       1 <0>        -0.1515
      2 C2         -2.0146    5.1399   -1.3985 C.3       1 <0>        -0.1170
      3 C3         -1.6928    4.7281    0.0395 C.3       1 <0>        -0.0447
      4 C4         -0.7824    3.5273    0.0264 C.2       1 <0>         0.1240
      5 C5          0.6055    3.5566    0.0132 C.2       1 <0>        -0.2699
      6 C6          1.0565    2.2661    0.0041 C.2       1 <0>         0.2878
      7 N1         -0.0178    1.4608    0.0101 N.pl3     1 <0>        -0.3460
      8 N2         -1.1634    2.2718    0.0192 N.2       1 <0>        -0.2668
      9 C7          0.0021   -0.0041    0.0020 C.3       1 <0>         0.0961
     10 O1          2.3757    1.9515   -0.0073 O.3       1 <0>        -0.2308
     11 C8          3.2550    2.9366    0.2662 C.2       1 <0>         0.4569
     12 C9          2.9314    4.2485    0.2915 C.2       1 <0>        -0.2692
     13 C10         1.5351    4.7430    0.0071 C.3       1 <0>         0.1246
     14 H1          1.2318    5.4516    0.7777 H         1 <0>         0.1025
     15 C11         1.4978    5.4127   -1.3424 C.ar      1 <0>        -0.0994
     16 C12         1.1279    6.7429   -1.4456 C.ar      1 <0>         0.1203
     17 C13         1.0946    7.3571   -2.6859 C.ar      1 <0>        -0.1474
     18 C14         1.4305    6.6424   -3.8204 C.ar      1 <0>        -0.0794
     19 C15         1.7997    5.3146   -3.7174 C.ar      1 <0>        -0.1214
     20 C16         1.8386    4.7005   -2.4778 C.ar      1 <0>         0.0060
     21 Cl1         2.3094    3.0345   -2.3488 Cl        1 <0>        -0.0532
     22 F1          0.8001    7.4413   -0.3365 F         1 <0>        -0.1276
     23 C17         3.9520    5.2046    0.5992 C.1       1 <0>         0.2701
     24 N3          4.7617    5.9631    0.8433 N.1       1 <0>        -0.4384
     25 N4          4.5550    2.5864    0.5342 N.pl3     1 <0>        -0.8292
     26 H2         -3.8626    6.1091   -0.8634 H         1 <0>         0.0565
     27 H3         -2.4443    7.1844   -0.8729 H         1 <0>         0.0564
     28 H4         -3.1681    6.6525   -2.4095 H         1 <0>         0.0563
     29 H5         -1.0908    5.3900   -1.9202 H         1 <0>         0.0635
     30 H6         -2.5092    4.3146   -1.9107 H         1 <0>         0.0651
     31 H7         -2.6166    4.4781    0.5612 H         1 <0>         0.0849
     32 H8         -1.1982    5.5534    0.5517 H         1 <0>         0.0868
     33 H9          0.0168   -0.3729    1.0276 H         1 <0>         0.0819
     34 H10        -0.8878   -0.3767   -0.5053 H         1 <0>         0.0992
     35 H11         0.8920   -0.3525   -0.5222 H         1 <0>         0.0888
     36 H12         0.8065    8.3948   -2.7671 H         1 <0>         0.1431
     37 H13         1.4047    7.1219   -4.7877 H         1 <0>         0.1428
     38 H14         2.0619    4.7570   -4.6044 H         1 <0>         0.1389
     39 H15         4.8179    1.6528    0.5233 H         1 <0>         0.4111
     40 H16         5.2107    3.2726    0.7345 H         1 <0>         0.4282
@<TRIPOS>BOND
     1    1    2 1
     2    1   26 1
     3    1   27 1
     4    1   28 1
     5    2    3 1
     6    2   29 1
     7    2   30 1
     8    3    4 1
     9    3   31 1
    10    3   32 1
    11    4    8 2
    12    4    5 1
    13    5   13 1
    14    5    6 2
    15    6    7 1
    16    6   10 1
    17    7    8 1
    18    7    9 1
    19    9   33 1
    20    9   34 1
    21    9   35 1
    22   10   11 1
    23   11   12 2
    24   11   25 1
    25   12   13 1
    26   12   23 1
    27   13   14 1
    28   13   15 1
    29   15   20 ar
    30   15   16 ar
    31   16   17 ar
    32   16   22 1
    33   17   18 ar
    34   17   36 1
    35   18   19 ar
    36   18   37 1
    37   19   20 ar
    38   19   38 1
    39   20   21 1
    40   23   24 3
    41   25   39 1
    42   25   40 1
@<TRIPOS>MOLECULE
ZINC20649795
   43    46     0     0     0
SMALL
USER_CHARGES
(2Z)-7-(dimethylaminomethyl)-6-hydroxy-2-(1H-indol-3-ylmethylene)benzofuran-3-one
@<TRIPOS>ATOM
      1 C1          3.3841   -6.0644   -2.1309 C.3       1 <0>        -0.0324
      2 N1          2.5590   -5.0670   -1.4363 N.4       1 <0>        -0.3972
      3 C2          1.1389   -5.4413   -1.4724 C.3       1 <0>        -0.0438
      4 C3          3.0177   -4.8748   -0.0540 C.3       1 <0>         0.0816
      5 C4          4.3932   -4.2591   -0.0623 C.ar      1 <0>        -0.3255
      6 C5          5.5164   -5.0705   -0.0769 C.ar      1 <0>         0.3373
      7 C6          6.7920   -4.5131   -0.0850 C.ar      1 <0>        -0.2667
      8 C7          6.9497   -3.1556   -0.0792 C.ar      1 <0>         0.0384
      9 C8          5.8285   -2.3266   -0.0641 C.ar      1 <0>        -0.3755
     10 C9          4.5367   -2.8786   -0.0558 C.ar      1 <0>         0.2001
     11 O1          3.6346   -1.8739   -0.0421 O.3       1 <0>        -0.2358
     12 C10         4.2418   -0.6635   -0.0406 C.2       1 <0>        -0.0645
     13 C11         3.6104    0.5438   -0.0286 C.2       1 <0>         0.0274
     14 C12         2.1502    0.6046   -0.0152 C.2       1 <0>        -0.1756
     15 C13         1.2781   -0.4626   -0.0126 C.2       1 <0>         0.0942
     16 N2          0.0021   -0.0041    0.0020 N.pl3     1 <0>        -0.5936
     17 H1         -0.8376   -0.7146    0.0062 H         1 <0>         0.4439
     18 C14        -0.0166    1.3759    0.0096 C.ar      1 <0>         0.0968
     19 C15         1.3148    1.8212   -0.0007 C.ar      1 <0>        -0.0841
     20 C16         1.5958    3.1845    0.0046 C.ar      1 <0>        -0.0757
     21 C17         0.5609    4.0946    0.0200 C.ar      1 <0>        -0.1364
     22 C18        -0.7551    3.6570    0.0303 C.ar      1 <0>        -0.0999
     23 C19        -1.0472    2.3102    0.0296 C.ar      1 <0>        -0.1263
     24 C20         5.6476   -0.8644   -0.0599 C.2       1 <0>         0.4124
     25 O2          6.5182   -0.0099   -0.0685 O.2       1 <0>        -0.4595
     26 O3          5.3717   -6.4203   -0.0837 O.3       1 <0>        -0.6760
     27 H2          4.4403   -5.7600   -2.0887 H         1 <0>         0.1306
     28 H3          3.0650   -6.1370   -3.1811 H         1 <0>         0.1008
     29 H4          3.2647   -7.0430   -1.6429 H         1 <0>         0.1162
     30 H5          0.5453   -4.6791   -0.9464 H         1 <0>         0.1121
     31 H6          1.0039   -6.4155   -0.9798 H         1 <0>         0.1137
     32 H7          0.8042   -5.5095   -2.5180 H         1 <0>         0.1134
     33 H8          2.3205   -4.2078    0.4743 H         1 <0>         0.1086
     34 H9          3.0543   -5.8473    0.4588 H         1 <0>         0.1285
     35 H10         7.6600   -5.1557   -0.0964 H         1 <0>         0.1203
     36 H11         7.9405   -2.7259   -0.0856 H         1 <0>         0.1167
     37 H12         4.1996    1.4727   -0.0290 H         1 <0>         0.1634
     38 H13         1.5665   -1.5033   -0.0215 H         1 <0>         0.1794
     39 H14         2.6199    3.5274   -0.0037 H         1 <0>         0.1263
     40 H15         0.7757    5.1531    0.0238 H         1 <0>         0.1268
     41 H16        -1.5586    4.3785    0.0423 H         1 <0>         0.1276
     42 H17        -2.0755    1.9802    0.0421 H         1 <0>         0.1210
     43 H18         2.6697   -4.1090   -1.9655 H         1 <0>         0.4310
@<TRIPOS>BOND
     1    1    2 1
     2    1   27 1
     3    1   28 1
     4    1   29 1
     5    2    3 1
     6    2    4 1
     7    2   43 1
     8    3   30 1
     9    3   31 1
    10    3   32 1
    11    4    5 1
    12    4   33 1
    13    4   34 1
    14    5   10 ar
    15    5    6 ar
    16    6    7 ar
    17    6   26 1
    18    7    8 ar
    19    7   35 1
    20    8    9 ar
    21    8   36 1
    22    9   24 1
    23    9   10 ar
    24   10   11 1
    25   11   12 1
    26   12   13 2
    27   12   24 1
    28   13   14 1
    29   13   37 1
    30   14   19 1
    31   14   15 2
    32   15   16 1
    33   15   38 1
    34   16   17 1
    35   16   18 1
    36   18   23 ar
    37   18   19 ar
    38   19   20 ar
    39   20   21 ar
    40   20   39 1
    41   21   22 ar
    42   21   40 1
    43   22   23 ar
    44   22   41 1
    45   23   42 1
    46   24   25 2
@<TRIPOS>MOLECULE
ZINC00971505
   41    43     0     0     0
SMALL
USER_CHARGES

@<TRIPOS>ATOM
      1 C1         -0.0187    1.5258    0.0104 C.3       1 <0>        -0.1513
      2 C2          0.0021   -0.0041    0.0020 C.3       1 <0>         0.0508
      3 N1          0.6897   -0.4778   -1.2066 N.3       1 <0>        -0.5280
      4 C3          2.1204   -0.1330   -1.1690 C.3       1 <0>         0.0715
      5 C4          2.7417   -0.5670   -2.4698 C.2       1 <0>        -0.0782
      6 C5          2.2708   -1.5729   -3.1472 C.2       1 <0>        -0.1296
      7 C6          1.0965   -2.4012   -2.6989 C.3       1 <0>        -0.0301
      8 H1          0.3114   -2.3491   -3.4532 H         1 <0>         0.1103
      9 C7          0.5251   -1.9242   -1.3714 C.3       1 <0>         0.0512
     10 C8          1.5597   -3.8550   -2.5520 C.3       1 <0>         0.0766
     11 H2          0.6865   -4.5036   -2.4811 H         1 <0>         0.1204
     12 C9          2.3896   -4.2745   -3.7249 C.2       1 <0>        -0.1586
     13 C10         3.0085   -3.4443   -4.5610 C.2       1 <0>         0.2525
     14 C11         2.9236   -1.9473   -4.4637 C.3       1 <0>         0.2423
     15 C12         2.1166   -1.4264   -5.5791 C.1       1 <0>         0.2023
     16 N2          1.4938   -1.0244   -6.4400 N.1       1 <0>        -0.3499
     17 C13         4.2775   -1.3726   -4.5229 C.1       1 <0>         0.1960
     18 N3          5.3223   -0.9291   -4.5686 N.1       1 <0>        -0.3470
     19 N4          3.7657   -3.9852   -5.5672 N.pl3     1 <0>        -0.8454
     20 C14         2.5290   -5.6791   -3.9661 C.1       1 <0>         0.2517
     21 N5          2.6396   -6.7934   -4.1574 N.1       1 <0>        -0.4202
     22 C15         2.3788   -3.9889   -1.2942 C.2       1 <0>        -0.1257
     23 C16         2.1585   -4.7741   -0.2120 C.2       1 <0>        -0.1463
     24 C17         3.0546   -4.7333    0.8402 C.2       1 <0>        -0.1350
     25 C18         4.1279   -3.9078    0.7573 C.2       1 <0>        -0.1274
     26 S1          3.8952   -3.1597   -0.8469 S.3       1 <0>         0.0983
     27 Cl1         5.4010   -3.6508    1.9092 Cl        1 <0>         0.0150
     28 H3          1.0039    1.9031    0.0027 H         1 <0>         0.0549
     29 H4         -0.5459    1.8868   -0.8726 H         1 <0>         0.0650
     30 H5         -0.5289    1.8773    0.9072 H         1 <0>         0.0608
     31 H6          0.5293   -0.3651    0.8851 H         1 <0>         0.0376
     32 H7         -1.0205   -0.3814    0.0098 H         1 <0>         0.0794
     33 H8          2.2362    0.9440   -1.0473 H         1 <0>         0.0996
     34 H9          2.6022   -0.6515   -0.3401 H         1 <0>         0.0673
     35 H10         3.5985   -0.0304   -2.8497 H         1 <0>         0.1217
     36 H11         1.0386   -2.4364   -0.5577 H         1 <0>         0.0532
     37 H12        -0.5363   -2.1690   -1.3316 H         1 <0>         0.0904
     38 H13         3.8390   -4.9484   -5.6549 H         1 <0>         0.4132
     39 H14         4.2283   -3.4048   -6.1917 H         1 <0>         0.4063
     40 H15         1.2954   -5.4221   -0.1719 H         1 <0>         0.1433
     41 H16         2.9023   -5.3486    1.7145 H         1 <0>         0.1414
@<TRIPOS>BOND
     1    1    2 1
     2    1   28 1
     3    1   29 1
     4    1   30 1
     5    2    3 1
     6    2   31 1
     7    2   32 1
     8    3    9 1
     9    3    4 1
    10    4    5 1
    11    4   33 1
    12    4   34 1
    13    5    6 2
    14    5   35 1
    15    6   14 1
    16    6    7 1
    17    7    8 1
    18    7    9 1
    19    7   10 1
    20    9   36 1
    21    9   37 1
    22   10   11 1
    23   10   12 1
    24   10   22 1
    25   12   13 2
    26   12   20 1
    27   13   14 1
    28   13   19 1
    29   14   15 1
    30   14   17 1
    31   15   16 3
    32   17   18 3
    33   19   38 1
    34   19   39 1
    35   20   21 3
    36   22   26 1
    37   22   23 2
    38   23   24 1
    39   23   40 1
    40   24   25 2
    41   24   41 1
    42   25   26 1
    43   25   27 1
@<TRIPOS>MOLECULE
ZINC42739917
   45    48     0     0     0
SMALL
USER_CHARGES

@<TRIPOS>ATOM
      1 C1         -1.7286   -0.0359    0.4842 C.3       1 <0>        -0.1882
      2 C2         -0.8187   -1.0470    1.1845 C.3       1 <0>         0.1603
      3 H1         -0.6525   -1.9032    0.5307 H         1 <0>         0.0875
      4 C3         -1.4769   -1.5149    2.4862 C.3       1 <0>        -0.1285
      5 C4         -1.5836   -0.3331    3.4527 C.3       1 <0>        -0.1113
      6 C5         -0.1826    0.1884    3.7802 C.3       1 <0>        -0.1307
      7 H2          0.4105   -0.6136    4.2198 H         1 <0>         0.0991
      8 C6          0.4904    0.6756    2.4931 C.3       1 <0>         0.1246
      9 N1          0.4682   -0.4135    1.5030 N.pl3     1 <0>        -0.6119
     10 C7          1.6330   -0.8350    0.8869 C.ar      1 <0>         0.4907
     11 C8          2.5103    0.1076    0.2867 C.ar      1 <0>        -0.2130
     12 C9          2.3954    1.5595    0.1956 C.2       1 <0>        -0.0417
     13 C10         3.3735    2.2518   -0.4344 C.2       1 <0>        -0.1547
     14 S1          4.5167    0.9838   -0.9472 S.3       1 <0>         0.1124
     15 C11         3.6657   -0.4357   -0.3110 C.ar      1 <0>         0.1358
     16 N2          3.8977   -1.7343   -0.3034 N.ar      1 <0>        -0.5063
     17 C12         3.0451   -2.5613    0.2694 C.ar      1 <0>         0.3471
     18 N3          1.9459   -2.1204    0.8544 N.ar      1 <0>        -0.5642
     19 C13         1.2298    2.2628    0.7813 C.ar      1 <0>        -0.0424
     20 C14        -0.0418    2.0822    0.2386 C.ar      1 <0>        -0.0989
     21 C15        -1.1233    2.7398    0.7882 C.ar      1 <0>        -0.1275
     22 C16        -0.9477    3.5773    1.8752 C.ar      1 <0>        -0.1246
     23 C17         0.3116    3.7608    2.4177 C.ar      1 <0>        -0.0784
     24 C18         1.3996    3.1034    1.8808 C.ar      1 <0>        -0.0978
     25 C19        -0.2868    1.3307    4.7576 C.2       1 <0>         0.5242
     26 O1          0.3792    2.3311    4.5944 O.2       1 <0>        -0.5293
     27 N4         -1.1201    1.2406    5.8130 N.am      1 <0>        -0.8552
     28 H3         -1.3412    0.1717   -0.5133 H         1 <0>         0.0602
     29 H4         -2.7351   -0.4468    0.4048 H         1 <0>         0.0656
     30 H5         -1.7579    0.8879    1.0621 H         1 <0>         0.0828
     31 H6         -2.4736   -1.9006    2.2717 H         1 <0>         0.0786
     32 H7         -0.8716   -2.3008    2.9380 H         1 <0>         0.0728
     33 H8         -2.1683    0.4623    2.9905 H         1 <0>         0.0731
     34 H9         -2.0740   -0.6576    4.3704 H         1 <0>         0.0679
     35 H10        -0.0512    1.5364    2.1009 H         1 <0>         0.1159
     36 H11         1.5225    0.9556    2.7039 H         1 <0>         0.0812
     37 H12         3.4441    3.3182   -0.5897 H         1 <0>         0.1978
     38 H13         3.2529   -3.6211    0.2652 H         1 <0>         0.2079
     39 H14        -0.1800    1.4291   -0.6104 H         1 <0>         0.1238
     40 H15        -2.1088    2.6006    0.3688 H         1 <0>         0.1251
     41 H16        -1.7971    4.0901    2.3018 H         1 <0>         0.1197
     42 H17         0.4427    4.4162    3.2660 H         1 <0>         0.1260
     43 H18         2.3814    3.2434    2.3083 H         1 <0>         0.1219
     44 H19        -1.6527    0.4405    5.9436 H         1 <0>         0.4004
     45 H20        -1.1871    1.9759    6.4422 H         1 <0>         0.4022
@<TRIPOS>BOND
     1    1    2 1
     2    1   28 1
     3    1   29 1
     4    1   30 1
     5    2    3 1
     6    2    9 1
     7    2    4 1
     8    4    5 1
     9    4   31 1
    10    4   32 1
    11    5    6 1
    12    5   33 1
    13    5   34 1
    14    6    7 1
    15    6    8 1
    16    6   25 1
    17    8    9 1
    18    8   35 1
    19    8   36 1
    20    9   10 1
    21   10   18 ar
    22   10   11 ar
    23   11   15 ar
    24   11   12 1
    25   12   13 2
    26   12   19 1
    27   13   14 1
    28   13   37 1
    29   14   15 1
    30   15   16 ar
    31   16   17 ar
    32   17   18 ar
    33   17   38 1
    34   19   24 ar
    35   19   20 ar
    36   20   21 ar
    37   20   39 1
    38   21   22 ar
    39   21   40 1
    40   22   23 ar
    41   22   41 1
    42   23   24 ar
    43   23   42 1
    44   24   43 1
    45   25   26 2
    46   25   27 am
    47   27   44 1
    48   27   45 1
@<TRIPOS>MOLECULE
ZINC04944283
   39    42     0     0     0
SMALL
USER_CHARGES

@<TRIPOS>ATOM
      1 C1         -0.0225    1.8097    0.0120 C.3       1 <0>        -0.1358
      2 S1          0.0021   -0.0041    0.0020 S.3       1 <0>         0.0098
      3 C2          0.8767   -0.4266    1.4721 C.2       1 <0>         0.4010
      4 N1          1.0816   -1.7397    1.7707 N.am      1 <0>        -0.6173
      5 H1          0.7470   -2.4297    1.1767 H         1 <0>         0.4254
      6 C3          1.7505   -2.0817    2.8931 C.2       1 <0>         0.5526
      7 O1          1.9411   -3.2548    3.1717 O.2       1 <0>        -0.5215
      8 C4          2.2204   -1.0646    3.7287 C.2       1 <0>        -0.3062
      9 C5          1.9865    0.2552    3.3816 C.2       1 <0>         0.4367
     10 N2          1.3226    0.5349    2.2551 N.2       1 <0>        -0.5618
     11 N3          2.4437    1.2765    4.1975 N.am      1 <0>        -0.6476
     12 C6          3.4066    1.0475    5.1087 C.2       1 <0>         0.5349
     13 O2          3.7803    1.9520    5.8246 O.2       1 <0>        -0.4990
     14 C7          4.0256   -0.3170    5.2514 C.3       1 <0>        -0.1352
     15 C8          2.9715   -1.3942    4.9900 C.3       1 <0>         0.0272
     16 H2          3.4604   -2.3622    4.8794 H         1 <0>         0.1148
     17 C9          2.0094   -1.4467    6.1487 C.ar      1 <0>        -0.0775
     18 C10         1.2640   -0.3147    6.4737 C.ar      1 <0>        -0.1184
     19 C11         0.3868   -0.3283    7.5142 C.ar      1 <0>        -0.1011
     20 C12         0.2273   -1.4998    8.2739 C.ar      1 <0>        -0.0515
     21 C13        -0.6691   -1.5522    9.3550 C.ar      1 <0>        -0.1072
     22 C14        -0.7975   -2.7043   10.0680 C.ar      1 <0>        -0.1155
     23 C15        -0.0524   -3.8364    9.7427 C.ar      1 <0>        -0.1165
     24 C16         0.8252   -3.8226    8.7026 C.ar      1 <0>        -0.1040
     25 C17         0.9849   -2.6509    7.9431 C.ar      1 <0>        -0.0493
     26 C18         1.8772   -2.6002    6.8585 C.ar      1 <0>        -0.0862
     27 H3          1.0001    2.1870    0.0043 H         1 <0>         0.0995
     28 H4         -0.5497    2.1708   -0.8711 H         1 <0>         0.1208
     29 H5         -0.5327    2.1613    0.9088 H         1 <0>         0.0994
     30 H6          2.0663    2.1659    4.1108 H         1 <0>         0.4188
     31 H7          4.8380   -0.4233    4.5326 H         1 <0>         0.1141
     32 H8          4.4191   -0.4326    6.2613 H         1 <0>         0.1205
     33 H9          1.3847    0.5869    5.8915 H         1 <0>         0.1166
     34 H10        -0.1835    0.5567    7.7549 H         1 <0>         0.1260
     35 H11        -1.2528   -0.6827    9.6189 H         1 <0>         0.1263
     36 H12        -1.4868   -2.7418   10.8986 H         1 <0>         0.1234
     37 H13        -0.1729   -4.7379   10.3250 H         1 <0>         0.1239
     38 H14         1.3962   -4.7072    8.4623 H         1 <0>         0.1283
     39 H15         2.4579   -3.4710    6.5922 H         1 <0>         0.1318
@<TRIPOS>BOND
     1    1    2 1
     2    1   27 1
     3    1   28 1
     4    1   29 1
     5    2    3 1
     6    3   10 2
     7    3    4 1
     8    4    5 1
     9    4    6 am
    10    6    7 2
    11    6    8 1
    12    8   15 1
    13    8    9 2
    14    9   10 1
    15    9   11 1
    16   11   12 am
    17   11   30 1
    18   12   13 2
    19   12   14 1
    20   14   15 1
    21   14   31 1
    22   14   32 1
    23   15   16 1
    24   15   17 1
    25   17   26 ar
    26   17   18 ar
    27   18   19 ar
    28   18   33 1
    29   19   20 ar
    30   19   34 1
    31   20   25 ar
    32   20   21 ar
    33   21   22 ar
    34   21   35 1
    35   22   23 ar
    36   22   36 1
    37   23   24 ar
    38   23   37 1
    39   24   25 ar
    40   24   38 1
    41   25   26 ar
    42   26   39 1
@<TRIPOS>MOLECULE
ZINC00510217
   43    46     0     0     0
SMALL
USER_CHARGES
amino-[(4-methoxyphenyl)methyl]BLAHone
@<TRIPOS>ATOM
      1 C1         -9.2991   -0.0413    7.2518 C.3       1 <0>         0.0268
      2 O1         -9.3914    1.0954    6.3907 O.3       1 <0>        -0.3179
      3 C2         -9.1521    0.8891    5.0689 C.ar      1 <0>         0.1321
      4 C3         -9.2246    1.9485    4.1761 C.ar      1 <0>        -0.1492
      5 C4         -8.9805    1.7362    2.8330 C.ar      1 <0>        -0.0578
      6 C5         -8.6642    0.4694    2.3784 C.ar      1 <0>        -0.1082
      7 C6         -8.5969   -0.5892    3.2654 C.ar      1 <0>        -0.0597
      8 C7         -8.8346   -0.3811    4.6102 C.ar      1 <0>        -0.2062
      9 C8         -8.3983    0.2407    0.9128 C.3       1 <0>        -0.0228
     10 C9         -6.9304    0.4342    0.6323 C.2       1 <0>         0.4031
     11 N1         -6.1374    0.7531    1.6316 N.2       1 <0>        -0.4413
     12 C10        -4.8467    0.9182    1.3587 C.2       1 <0>         0.0926
     13 C11        -4.2899    0.7719    0.0688 C.2       1 <0>        -0.2534
     14 C12        -2.8588    0.9913   -0.0398 C.2       1 <0>        -0.0494
     15 C13        -2.2055    1.3118    1.1018 C.2       1 <0>        -0.1740
     16 S1         -3.4562    1.3370    2.3614 S.3       1 <0>         0.1548
     17 C14        -0.7382    1.5844    1.2659 C.3       1 <0>        -0.0367
     18 C15        -0.0127    1.0858    0.0080 C.3       1 <0>        -0.1153
     19 C16        -0.7602    1.5965   -1.2273 C.3       1 <0>        -0.1226
     20 C17        -2.1004    0.8730   -1.3593 C.3       1 <0>        -0.0587
     21 C18        -5.1902    0.4233   -0.9935 C.2       1 <0>         0.5439
     22 O2         -4.8108    0.2730   -2.1421 O.2       1 <0>        -0.5178
     23 N2         -6.4880    0.2716   -0.6377 N.am      1 <0>        -0.3639
     24 N3         -7.3936   -0.0606   -1.6050 N.3       1 <0>        -0.6075
     25 H1         -9.5125    0.2613    8.2770 H         1 <0>         0.1006
     26 H2        -10.0213   -0.7948    6.9375 H         1 <0>         0.0558
     27 H3         -8.2931   -0.4573    7.1977 H         1 <0>         0.0560
     28 H4         -9.4720    2.9381    4.5306 H         1 <0>         0.1309
     29 H5         -9.0364    2.5607    2.1376 H         1 <0>         0.1275
     30 H6         -8.3543   -1.5787    2.9071 H         1 <0>         0.1207
     31 H7         -8.7775   -1.2074    5.3033 H         1 <0>         0.1274
     32 H8         -8.9776    0.9513    0.3232 H         1 <0>         0.1212
     33 H9         -8.6886   -0.7753    0.6450 H         1 <0>         0.1066
     34 H10        -0.3593    1.0562    2.1409 H         1 <0>         0.0843
     35 H11        -0.5755    2.6559    1.3822 H         1 <0>         0.0860
     36 H12         0.0021   -0.0041    0.0020 H         1 <0>         0.0686
     37 H13         1.0090    1.4655    0.0003 H         1 <0>         0.0761
     38 H14        -0.9352    2.6678   -1.1276 H         1 <0>         0.0665
     39 H15        -0.1595    1.4090   -2.1173 H         1 <0>         0.0717
     40 H16        -2.6846    1.3297   -2.1582 H         1 <0>         0.0851
     41 H17        -1.9266   -0.1786   -1.5873 H         1 <0>         0.0775
     42 H18        -6.9449   -0.1527   -2.5040 H         1 <0>         0.3867
     43 H19        -7.8905   -0.9041   -1.3607 H         1 <0>         0.3599
@<TRIPOS>BOND
     1    1    2 1
     2    1   25 1
     3    1   26 1
     4    1   27 1
     5    2    3 1
     6    3    8 ar
     7    3    4 ar
     8    4    5 ar
     9    4   28 1
    10    5    6 ar
    11    5   29 1
    12    6    7 ar
    13    6    9 1
    14    7    8 ar
    15    7   30 1
    16    8   31 1
    17    9   10 1
    18    9   32 1
    19    9   33 1
    20   10   23 1
    21   10   11 2
    22   11   12 1
    23   12   16 1
    24   12   13 2
    25   13   14 1
    26   13   21 1
    27   14   20 1
    28   14   15 2
    29   15   16 1
    30   15   17 1
    31   17   18 1
    32   17   34 1
    33   17   35 1
    34   18   19 1
    35   18   36 1
    36   18   37 1
    37   19   20 1
    38   19   38 1
    39   19   39 1
    40   20   40 1
    41   20   41 1
    42   21   22 2
    43   21   23 am
    44   23   24 1
    45   24   42 1
    46   24   43 1
@<TRIPOS>MOLECULE
ZINC20690085
   51    54     0     0     0
SMALL
USER_CHARGES
N-[(3aR,4S,9bS)-4-(3-hydroxy-4-methoxy-phenyl)-3a,4,5,9b-tetrahydro-3H-cyclopenta[c]quinolin-8-yl]-N-methyl-acetamide
@<TRIPOS>ATOM
      1 C1          4.8094    4.0343    0.1924 C.3       1 <0>        -0.1781
      2 C2          3.5283    3.2477    0.0874 C.2       1 <0>         0.5110
      3 O1          3.5604    2.0352    0.0751 O.2       1 <0>        -0.5245
      4 N1          2.3469    3.8914    0.0071 N.am      1 <0>        -0.5522
      5 C3          2.3140    5.3530   -0.0871 C.3       1 <0>         0.0615
      6 C4          1.1499    3.1625    0.0138 C.ar      1 <0>         0.0960
      7 C5          1.1831    1.7757   -0.0507 C.ar      1 <0>        -0.1228
      8 C6          0.0005    1.0642   -0.0436 C.ar      1 <0>        -0.1677
      9 C7         -1.2153    1.7332    0.0210 C.ar      1 <0>         0.2041
     10 C8         -1.2562    3.1171    0.0910 C.ar      1 <0>        -0.1254
     11 C9         -0.0637    3.8275    0.0842 C.ar      1 <0>        -0.1205
     12 C10        -2.5424    3.8771    0.1682 C.3       1 <0>        -0.0033
     13 H1         -2.3519    4.6080    0.9679 H         1 <0>         0.0901
     14 C11        -2.8760    4.5302   -1.1521 C.2       1 <0>        -0.1536
     15 C12        -4.1704    4.5042   -1.3565 C.2       1 <0>        -0.1690
     16 C13        -4.8782    3.8340   -0.1951 C.3       1 <0>        -0.0822
     17 C14        -3.7575    2.9766    0.4635 C.3       1 <0>        -0.0871
     18 H2         -3.8791    2.7011    1.5215 H         1 <0>         0.1003
     19 C15        -3.6503    1.6756   -0.3373 C.3       1 <0>         0.2018
     20 H3         -4.4871    0.9972   -0.1147 H         1 <0>         0.0932
     21 N2         -2.4053    0.9928    0.0297 N.pl3     1 <0>        -0.7590
     22 C16        -3.6381    1.9898   -1.8111 C.ar      1 <0>        -0.0827
     23 C17        -2.4704    2.4170   -2.4156 C.ar      1 <0>        -0.0985
     24 C18        -2.4540    2.7065   -3.7673 C.ar      1 <0>        -0.1756
     25 C19        -3.6094    2.5683   -4.5195 C.ar      1 <0>         0.0857
     26 C20        -4.7846    2.1378   -3.9112 C.ar      1 <0>         0.1236
     27 C21        -4.7930    1.8448   -2.5569 C.ar      1 <0>        -0.1703
     28 O2         -5.9212    2.0006   -4.6452 O.3       1 <0>        -0.5023
     29 O3         -3.5951    2.8530   -5.8492 O.3       1 <0>        -0.3100
     30 C22        -2.3536    3.2901   -6.4057 C.3       1 <0>         0.0248
     31 H4          4.5804    5.1102    0.1884 H         1 <0>         0.0824
     32 H5          5.4582    3.7943   -0.6629 H         1 <0>         0.0996
     33 H6          5.3247    3.7726    1.1283 H         1 <0>         0.1003
     34 H7          1.2695    5.6933   -0.1435 H         1 <0>         0.0898
     35 H8          2.8537    5.6744   -0.9901 H         1 <0>         0.0723
     36 H9          2.7941    5.7886    0.8016 H         1 <0>         0.0732
     37 H10         2.1287    1.2570   -0.1057 H         1 <0>         0.1809
     38 H11         0.0202   -0.0145   -0.0930 H         1 <0>         0.1227
     39 H12        -0.0819    4.9062    0.1338 H         1 <0>         0.1244
     40 H13        -2.2103    4.9871   -1.8991 H         1 <0>         0.1224
     41 H14        -4.5907    4.9358   -2.2769 H         1 <0>         0.1217
     42 H15        -5.2738    4.6021    0.4857 H         1 <0>         0.0777
     43 H16        -5.7073    3.2197   -0.5762 H         1 <0>         0.0718
     44 H17        -2.4221   -0.0728    0.3021 H         1 <0>         0.4242
     45 H18        -1.5691    2.5251   -1.8304 H         1 <0>         0.1414
     46 H19        -1.5405    3.0400   -4.2370 H         1 <0>         0.1265
     47 H20        -5.7029    1.5069   -2.0831 H         1 <0>         0.1279
     48 H21        -6.8495    1.6602   -4.1631 H         1 <0>         0.4270
     49 H22        -2.4819    3.4843   -7.4808 H         1 <0>         0.1002
     50 H23        -1.5924    2.5091   -6.2624 H         1 <0>         0.0534
     51 H24        -2.0310    4.2134   -5.9022 H         1 <0>         0.0529
@<TRIPOS>BOND
     1    1    2 1
     2    1   31 1
     3    1   32 1
     4    1   33 1
     5    2    3 2
     6    2    4 am
     7    4    5 1
     8    4    6 1
     9    5   34 1
    10    5   35 1
    11    5   36 1
    12    6   11 ar
    13    6    7 ar
    14    7    8 ar
    15    7   37 1
    16    8    9 ar
    17    8   38 1
    18    9   21 1
    19    9   10 ar
    20   10   11 ar
    21   10   12 1
    22   11   39 1
    23   12   13 1
    24   12   17 1
    25   12   14 1
    26   14   15 2
    27   14   40 1
    28   15   16 1
    29   15   41 1
    30   16   17 1
    31   16   42 1
    32   16   43 1
    33   17   18 1
    34   17   19 1
    35   19   20 1
    36   19   21 1
    37   19   22 1
    38   21   44 1
    39   22   27 ar
    40   22   23 ar
    41   23   24 ar
    42   23   45 1
    43   24   25 ar
    44   24   46 1
    45   25   26 ar
    46   25   29 1
    47   26   27 ar
    48   26   28 1
    49   27   47 1
    50   28   48 1
    51   29   30 1
    52   30   49 1
    53   30   50 1
    54   30   51 1
@<TRIPOS>MOLECULE
ZINC36277450
   49    52     0     0     0
SMALL
USER_CHARGES

@<TRIPOS>ATOM
      1 C1         -0.0687    1.9677   -0.2848 C.3       1 <0>        -0.1792
      2 C2         -0.0795    0.4523   -0.0743 C.3       1 <0>         0.0910
      3 H1         -1.1093    0.0965   -0.0434 H         1 <0>         0.1073
      4 C3          0.6625   -0.2292   -1.2270 C.3       1 <0>         0.0206
      5 N1          2.0696    0.1965   -1.2170 N.3       1 <0>        -0.5287
      6 C4          2.7074   -0.1426    0.0635 C.3       1 <0>         0.0261
      7 C5          1.9448    0.5381    1.2033 C.3       1 <0>         0.0876
      8 H2          2.0114    1.6202    1.0905 H         1 <0>         0.0708
      9 O1          0.5720    0.1368    1.1592 O.3       1 <0>        -0.3754
     10 C6          2.5553    0.1257    2.5442 C.3       1 <0>        -0.1450
     11 C7          2.8058   -0.3919   -2.3438 C.3       1 <0>         0.1357
     12 C8          4.1649    0.2510   -2.4466 C.2       1 <0>        -0.0424
     13 C9          4.4731    1.3882   -3.1315 C.2       1 <0>         0.1138
     14 N2          5.7839    1.6300   -2.9775 N.2       1 <0>        -0.4727
     15 C10         6.3136    0.6816   -2.2170 C.2       1 <0>         0.1990
     16 N3          5.3192   -0.1931   -1.8657 N.pl3     1 <0>        -0.3210
     17 C11         5.5937   -1.2721   -1.0712 C.2       1 <0>        -0.0704
     18 C12         6.8518   -1.4904   -0.6173 C.2       1 <0>         0.2046
     19 C13         7.8921   -0.6038   -0.9609 C.2       1 <0>        -0.1428
     20 C14         7.6289    0.4661   -1.7571 C.2       1 <0>        -0.0348
     21 N4          7.1190   -2.6000    0.1960 N.pl3     1 <0>        -0.8676
     22 C15         3.5222    2.2166   -3.9138 C.ar      1 <0>        -0.0213
     23 C16         2.2552    2.4945   -3.4050 C.ar      1 <0>        -0.0737
     24 C17         1.3744    3.2656   -4.1355 C.ar      1 <0>        -0.1571
     25 C18         1.7483    3.7632   -5.3732 C.ar      1 <0>         0.1023
     26 C19         3.0069    3.4890   -5.8831 C.ar      1 <0>        -0.1579
     27 C20         3.8960    2.7236   -5.1568 C.ar      1 <0>        -0.0604
     28 F1          0.8829    4.5178   -6.0852 F         1 <0>        -0.1401
     29 H3          0.9614    2.3229   -0.3156 H         1 <0>         0.0710
     30 H4         -0.5639    2.2074   -1.2257 H         1 <0>         0.0668
     31 H5         -0.5958    2.4524    0.5370 H         1 <0>         0.0602
     32 H6          0.6087   -1.3111   -1.1054 H         1 <0>         0.0457
     33 H7          0.2032    0.0545   -2.1739 H         1 <0>         0.0916
     34 H8          2.6863   -1.2231    0.2057 H         1 <0>         0.0407
     35 H9          3.7406    0.2044    0.0587 H         1 <0>         0.0824
     36 H10         3.6018    0.4290    2.5756 H         1 <0>         0.0701
     37 H11         2.0120    0.6106    3.3553 H         1 <0>         0.0683
     38 H12         2.4871   -0.9563    2.6571 H         1 <0>         0.0615
     39 H13         2.9221   -1.4635   -2.1820 H         1 <0>         0.0440
     40 H14         2.2526   -0.2219   -3.2676 H         1 <0>         0.1037
     41 H15         4.8014   -1.9553   -0.8032 H         1 <0>         0.1511
     42 H16         8.8947   -0.7772   -0.5987 H         1 <0>         0.1449
     43 H17         8.4186    1.1523   -2.0252 H         1 <0>         0.1568
     44 H18         6.4037   -3.2107    0.4334 H         1 <0>         0.4017
     45 H19         8.0191   -2.7573    0.5215 H         1 <0>         0.4065
     46 H20         1.9628    2.1066   -2.4404 H         1 <0>         0.1565
     47 H21         0.3920    3.4811   -3.7420 H         1 <0>         0.1361
     48 H22         3.2941    3.8783   -6.8487 H         1 <0>         0.1369
     49 H23         4.8786    2.5140   -5.5530 H         1 <0>         0.1352
@<TRIPOS>BOND
     1    1    2 1
     2    1   29 1
     3    1   30 1
     4    1   31 1
     5    2    3 1
     6    2    9 1
     7    2    4 1
     8    4    5 1
     9    4   32 1
    10    4   33 1
    11    5    6 1
    12    5   11 1
    13    6    7 1
    14    6   34 1
    15    6   35 1
    16    7    8 1
    17    7    9 1
    18    7   10 1
    19   10   36 1
    20   10   37 1
    21   10   38 1
    22   11   12 1
    23   11   39 1
    24   11   40 1
    25   12   16 1
    26   12   13 2
    27   13   14 1
    28   13   22 1
    29   14   15 2
    30   15   20 1
    31   15   16 1
    32   16   17 1
    33   17   18 2
    34   17   41 1
    35   18   19 1
    36   18   21 1
    37   19   20 2
    38   19   42 1
    39   20   43 1
    40   21   44 1
    41   21   45 1
    42   22   27 ar
    43   22   23 ar
    44   23   24 ar
    45   23   46 1
    46   24   25 ar
    47   24   47 1
    48   25   26 ar
    49   25   28 1
    50   26   27 ar
    51   26   48 1
    52   27   49 1
@<TRIPOS>MOLECULE
ZINC45626344
   38    40     0     0     0
SMALL
USER_CHARGES

@<TRIPOS>ATOM
      1 C1         -0.0426    2.0584    0.2469 C.3       1 <0>        -0.1520
      2 C2         -0.0939    0.5525   -0.0191 C.3       1 <0>        -0.0976
      3 H1          0.3779    0.3366   -0.9776 H         1 <0>         0.0968
      4 C3         -1.5519    0.0899   -0.0525 C.3       1 <0>        -0.1279
      5 C4         -1.6032   -1.4159   -0.3185 C.3       1 <0>        -0.1133
      6 C5         -0.8588   -2.1560    0.7946 C.3       1 <0>        -0.1313
      7 C6          0.5992   -1.6934    0.8281 C.3       1 <0>        -0.1283
      8 C7          0.6505   -0.1876    1.0940 C.3       1 <0>         0.1501
      9 H2          1.6892    0.1420    1.1179 H         1 <0>         0.1125
     10 N1          0.0164    0.1027    2.3824 N.pl3     1 <0>        -0.3499
     11 C8          0.5885    0.6717    3.4723 C.2       1 <0>         0.2742
     12 N2         -0.3406    0.7444    4.4020 N.2       1 <0>        -0.2964
     13 N3         -1.4489    0.2617    3.9688 N.2       1 <0>        -0.0479
     14 N4         -1.3175   -0.1433    2.7522 N.2       1 <0>        -0.0706
     15 C9          1.9923    1.1246    3.5938 C.ar      1 <0>         0.0420
     16 C10         3.0339    0.2877    3.1963 C.ar      1 <0>        -0.1731
     17 C11         4.3464    0.7186    3.3125 C.ar      1 <0>         0.2364
     18 C12         4.6208    1.9816    3.8246 C.ar      1 <0>        -0.1703
     19 C13         3.5886    2.8113    4.2187 C.ar      1 <0>        -0.0375
     20 C14         2.2772    2.3931    4.1014 C.ar      1 <0>        -0.1094
     21 Br1         0.8686    3.5363    4.6353 Br        1 <0>        -0.0267
     22 N5          5.3938   -0.1168    2.9152 N.pl3     1 <0>        -0.8686
     23 H3          0.9961    2.3879    0.2707 H         1 <0>         0.0580
     24 H4         -0.5730    2.5856   -0.5461 H         1 <0>         0.0666
     25 H5         -0.5145    2.2743    1.2055 H         1 <0>         0.0515
     26 H6         -2.0237    0.3059    0.9061 H         1 <0>         0.0869
     27 H7         -2.0823    0.6172   -0.8455 H         1 <0>         0.0665
     28 H8         -2.6419   -1.7455   -0.3423 H         1 <0>         0.0671
     29 H9         -1.1314   -1.6319   -1.2770 H         1 <0>         0.0597
     30 H10        -1.3306   -1.9401    1.7532 H         1 <0>         0.0838
     31 H11        -0.8953   -3.2288    0.6052 H         1 <0>         0.0664
     32 H12         1.1296   -2.2207    1.6211 H         1 <0>         0.0691
     33 H13         1.0710   -1.9094   -0.1305 H         1 <0>         0.0918
     34 H14         2.8190   -0.6934    2.7993 H         1 <0>         0.1320
     35 H15         5.6440    2.3152    3.9150 H         1 <0>         0.1380
     36 H16         3.8075    3.7915    4.6159 H         1 <0>         0.1437
     37 H17         5.2024   -0.9982    2.5582 H         1 <0>         0.4026
     38 H18         6.3122    0.1846    2.9965 H         1 <0>         0.4053
@<TRIPOS>BOND
     1    1    2 1
     2    1   23 1
     3    1   24 1
     4    1   25 1
     5    2    3 1
     6    2    8 1
     7    2    4 1
     8    4    5 1
     9    4   26 1
    10    4   27 1
    11    5    6 1
    12    5   28 1
    13    5   29 1
    14    6    7 1
    15    6   30 1
    16    6   31 1
    17    7    8 1
    18    7   32 1
    19    7   33 1
    20    8    9 1
    21    8   10 1
    22   10   14 1
    23   10   11 1
    24   11   12 2
    25   11   15 1
    26   12   13 1
    27   13   14 2
    28   15   20 ar
    29   15   16 ar
    30   16   17 ar
    31   16   34 1
    32   17   18 ar
    33   17   22 1
    34   18   19 ar
    35   18   35 1
    36   19   20 ar
    37   19   36 1
    38   20   21 1
    39   22   37 1
    40   22   38 1
@<TRIPOS>MOLECULE
ZINC61629321
   27    28     0     0     0
SMALL
USER_CHARGES

@<TRIPOS>ATOM
      1 C1          1.0207   -0.2238    1.2339 C.ar      1 <0>        -0.0766
      2 C2          2.2089    0.4750    1.1427 C.ar      1 <0>        -0.1063
      3 C3          2.3806    1.4228    0.1435 C.ar      1 <0>         0.1319
      4 C4          1.3560    1.6665   -0.7631 C.ar      1 <0>        -0.0021
      5 C5          0.1694    0.9647   -0.6673 C.ar      1 <0>        -0.0850
      6 C6          0.0016    0.0203    0.3304 C.ar      1 <0>        -0.0100
      7 Cl1        -1.4901   -0.8598    0.4483 Cl        1 <0>        -0.0340
      8 Cl2         1.5663    2.8515   -2.0141 Cl        1 <0>        -0.0222
      9 N1          3.5859    2.1336    0.0493 N.pl3     1 <0>        -0.2538
     10 C7          4.8276    1.5988    0.0540 C.2       1 <0>        -0.4786
     11 C8          5.7143    2.6154   -0.0550 C.2       1 <0>        -0.1246
     12 C9          4.9917    3.8111   -0.1288 C.2       1 <0>        -0.0131
     13 N2          3.7161    3.5231   -0.0725 N.2       1 <0>        -0.1827
     14 C10         5.5804    5.1924   -0.2575 C.3       1 <0>         0.3626
     15 F1          4.7317    6.1201    0.3559 F         1 <0>        -0.1839
     16 F2          6.8336    5.2249    0.3636 F         1 <0>        -0.1846
     17 S1          5.2209   -0.1142    0.1801 S.o2      1 <0>         2.7126
     18 O1          5.2940   -0.4130    1.5673 O.2       1 <0>        -0.9381
     19 O2          4.3413   -0.7987   -0.7014 O.2       1 <0>        -0.9304
     20 N3          6.7485   -0.3118   -0.4279 N.pl3     1 <0>        -1.2348
     21 H1          0.8887   -0.9645    2.0087 H         1 <0>         0.1613
     22 H2          3.0036    0.2841    1.8487 H         1 <0>         0.1559
     23 H3         -0.6275    1.1534   -1.3714 H         1 <0>         0.1619
     24 H4          6.7898    2.5204   -0.0802 H         1 <0>         0.1807
     25 H5          5.6912    5.4433   -1.3124 H         1 <0>         0.1413
     26 H6          7.3189   -1.0181   -0.0862 H         1 <0>         0.4305
     27 H7          7.0730    0.2787   -1.1257 H         1 <0>         0.4220
@<TRIPOS>BOND
     1    1    6 ar
     2    1    2 ar
     3    1   21 1
     4    2    3 ar
     5    2   22 1
     6    3    4 ar
     7    3    9 1
     8    4    5 ar
     9    4    8 1
    10    5    6 ar
    11    5   23 1
    12    6    7 1
    13    9   13 1
    14    9   10 1
    15   10   11 2
    16   10   17 1
    17   11   12 1
    18   11   24 1
    19   12   13 2
    20   12   14 1
    21   14   15 1
    22   14   16 1
    23   14   25 1
    24   17   18 2
    25   17   19 2
    26   17   20 1
    27   20   26 1
    28   20   27 1
@<TRIPOS>MOLECULE
ZINC00274855
   44    47     0     0     0
SMALL
USER_CHARGES
4-amino-9-methyl-2-(o-tolyl)-7-phenyl-5-oxa-7,8-diazabicyclo[4.3.0]nona-3,8,10-triene-3-carbonitrile
@<TRIPOS>ATOM
      1 C1          9.1850   -3.0945   -0.7874 C.3       1 <0>        -0.1233
      2 C2          8.2848   -3.0624   -1.9956 C.ar      1 <0>        -0.0772
      3 C3          8.4514   -3.9905   -3.0067 C.ar      1 <0>        -0.1185
      4 C4          7.6292   -3.9578   -4.1171 C.ar      1 <0>        -0.1160
      5 C5          6.6369   -3.0000   -4.2146 C.ar      1 <0>        -0.1248
      6 C6          6.4675   -2.0749   -3.2018 C.ar      1 <0>        -0.0958
      7 C7          7.2897   -2.1079   -2.0908 C.ar      1 <0>        -0.0735
      8 C8          7.1049   -1.0993   -0.9864 C.3       1 <0>         0.1161
      9 H1          7.8301   -1.2847   -0.1940 H         1 <0>         0.1038
     10 C9          5.7074   -1.2024   -0.4322 C.2       1 <0>        -0.2513
     11 C10         5.1487   -2.1925    0.3652 C.2       1 <0>         0.1256
     12 N1          3.9019   -1.8663    0.6124 N.2       1 <0>        -0.2610
     13 N2          3.6235   -0.6520   -0.0346 N.pl3     1 <0>        -0.3001
     14 C11         4.7489   -0.2568   -0.6687 C.2       1 <0>         0.2729
     15 O1          4.9797    0.8494   -1.4179 O.3       1 <0>        -0.2264
     16 C12         6.2617    1.1487   -1.7108 C.2       1 <0>         0.4363
     17 C13         7.2932    0.2939   -1.5329 C.2       1 <0>        -0.2566
     18 C14         8.6143    0.7268   -1.8765 C.1       1 <0>         0.2706
     19 N3          9.6622    1.0703   -2.1490 N.1       1 <0>        -0.4363
     20 N4          6.5348    2.3945   -2.2188 N.pl3     1 <0>        -0.8307
     21 C15         2.3994    0.0308   -0.0202 C.ar      1 <0>         0.1417
     22 C16         1.2066   -0.6797   -0.0126 C.ar      1 <0>        -0.1025
     23 C17         0.0021   -0.0041    0.0020 C.ar      1 <0>        -0.1005
     24 C18        -0.0167    1.3786    0.0096 C.ar      1 <0>        -0.1153
     25 C19         1.1697    2.0890    0.0021 C.ar      1 <0>        -0.0982
     26 C20         2.3774    1.4190   -0.0130 C.ar      1 <0>        -0.1217
     27 C21         5.8547   -3.4260    0.8662 C.3       1 <0>        -0.0826
     28 H2          8.7468   -3.7383   -0.0248 H         1 <0>         0.0752
     29 H3         10.1626   -3.4829   -1.0730 H         1 <0>         0.0681
     30 H4          9.2967   -2.0854   -0.3907 H         1 <0>         0.0690
     31 H5          9.2263   -4.7389   -2.9304 H         1 <0>         0.1220
     32 H6          7.7616   -4.6807   -4.9086 H         1 <0>         0.1205
     33 H7          5.9944   -2.9745   -5.0823 H         1 <0>         0.1189
     34 H8          5.6925   -1.3265   -3.2781 H         1 <0>         0.1108
     35 H9          5.8153    3.0301   -2.3574 H         1 <0>         0.4113
     36 H10         7.4472    2.6391   -2.4391 H         1 <0>         0.4281
     37 H11         1.2207   -1.7596   -0.0178 H         1 <0>         0.1368
     38 H12        -0.9261   -0.5562    0.0079 H         1 <0>         0.1356
     39 H13        -0.9598    1.9047    0.0169 H         1 <0>         0.1320
     40 H14         1.1518    3.1688    0.0081 H         1 <0>         0.1346
     41 H15         3.3036    1.9744   -0.0185 H         1 <0>         0.1285
     42 H16         6.3204   -3.2126    1.8283 H         1 <0>         0.0865
     43 H17         5.1338   -4.2352    0.9830 H         1 <0>         0.0807
     44 H18         6.6207   -3.7225    0.1496 H         1 <0>         0.0866
@<TRIPOS>BOND
     1    1    2 1
     2    1   28 1
     3    1   29 1
     4    1   30 1
     5    2    7 ar
     6    2    3 ar
     7    3    4 ar
     8    3   31 1
     9    4    5 ar
    10    4   32 1
    11    5    6 ar
    12    5   33 1
    13    6    7 ar
    14    6   34 1
    15    7    8 1
    16    8    9 1
    17    8   17 1
    18    8   10 1
    19   10   14 2
    20   10   11 1
    21   11   12 2
    22   11   27 1
    23   12   13 1
    24   13   14 1
    25   13   21 1
    26   14   15 1
    27   15   16 1
    28   16   17 2
    29   16   20 1
    30   17   18 1
    31   18   19 3
    32   20   35 1
    33   20   36 1
    34   21   26 ar
    35   21   22 ar
    36   22   23 ar
    37   22   37 1
    38   23   24 ar
    39   23   38 1
    40   24   25 ar
    41   24   39 1
    42   25   26 ar
    43   25   40 1
    44   26   41 1
    45   27   42 1
    46   27   43 1
    47   27   44 1
@<TRIPOS>MOLECULE
ZINC20132930
   38    41     0     0     0
SMALL
USER_CHARGES
9-hydroxy-2-(4-methoxyphenyl)-3,5-dihydrochromeno[3,2-e]pyrimidine-4-thione
@<TRIPOS>ATOM
      1 C1         11.0772    6.3204    3.0233 C.3       1 <0>         0.0173
      2 O1          9.8532    6.9413    2.6255 O.3       1 <0>        -0.3069
      3 C2          8.8356    6.1201    2.2611 C.ar      1 <0>         0.1723
      4 C3          7.6181    6.6597    1.8635 C.ar      1 <0>        -0.1576
      5 C4          6.5833    5.8301    1.4925 C.ar      1 <0>        -0.0014
      6 C5          6.7586    4.4439    1.5167 C.ar      1 <0>        -0.1288
      7 C6          7.9826    3.9053    1.9227 C.ar      1 <0>        -0.0380
      8 C7          9.0140    4.7421    2.2871 C.ar      1 <0>        -0.2109
      9 C8          5.6524    3.5512    1.1206 C.2       1 <0>         0.4728
     10 N1          5.8410    2.2004    1.1497 N.pl3     1 <0>        -0.5807
     11 H1          6.8101    1.7871    1.4658 H         1 <0>         0.4630
     12 C9          4.8375    1.3728    0.7903 C.2       1 <0>         0.3393
     13 S1          5.0545   -0.3251    0.8225 S.2       1 <0>        -0.5906
     14 C10         3.6140    1.9281    0.3906 C.2       1 <0>        -0.2519
     15 C11         3.4738    3.3011    0.3776 C.2       1 <0>         0.4087
     16 N2          4.5052    4.0743    0.7463 N.2       1 <0>        -0.5136
     17 O2          2.3149    3.8782   -0.0007 O.3       1 <0>        -0.2032
     18 C12         1.1625    3.1647    0.0079 C.ar      1 <0>         0.0495
     19 C13         1.1788    1.7810    0.0004 C.ar      1 <0>        -0.0880
     20 C14        -0.0126    1.0758    0.0080 C.ar      1 <0>        -0.1288
     21 C15        -1.2204    1.7470    0.0173 C.ar      1 <0>        -0.0792
     22 C16        -1.2444    3.1290    0.0306 C.ar      1 <0>        -0.1932
     23 C17        -0.0569    3.8411    0.0234 C.ar      1 <0>         0.1679
     24 O3         -0.0797    5.2007    0.0309 O.3       1 <0>        -0.4966
     25 C18         2.4819    1.0281   -0.0172 C.3       1 <0>        -0.0118
     26 H2         11.8112    7.0948    3.2907 H         1 <0>         0.1089
     27 H3         11.4686    5.7156    2.1920 H         1 <0>         0.0628
     28 H4         10.8940    5.6728    3.8934 H         1 <0>         0.0628
     29 H5          7.4835    7.7311    1.8450 H         1 <0>         0.1470
     30 H6          5.6375    6.2502    1.1836 H         1 <0>         0.1551
     31 H7          8.1207    2.8344    1.9471 H         1 <0>         0.1302
     32 H8          9.9616    4.3268    2.5967 H         1 <0>         0.1437
     33 H9          0.0021   -0.0041    0.0020 H         1 <0>         0.1388
     34 H10        -2.1464    1.1913    0.0183 H         1 <0>         0.1363
     35 H11        -2.1887    3.6530    0.0420 H         1 <0>         0.1425
     36 H12        -1.0414    5.7346    0.0431 H         1 <0>         0.4391
     37 H13         2.6625    0.6495   -1.0341 H         1 <0>         0.1052
     38 H14         2.4157    0.1821    0.6827 H         1 <0>         0.1177
@<TRIPOS>BOND
     1    1    2 1
     2    1   26 1
     3    1   27 1
     4    1   28 1
     5    2    3 1
     6    3    8 ar
     7    3    4 ar
     8    4    5 ar
     9    4   29 1
    10    5    6 ar
    11    5   30 1
    12    6    7 ar
    13    6    9 1
    14    7    8 ar
    15    7   31 1
    16    8   32 1
    17    9   16 2
    18    9   10 1
    19   10   11 1
    20   10   12 1
    21   12   13 2
    22   12   14 1
    23   14   25 1
    24   14   15 2
    25   15   16 1
    26   15   17 1
    27   17   18 1
    28   18   23 ar
    29   18   19 ar
    30   19   20 ar
    31   19   25 1
    32   20   21 ar
    33   20   33 1
    34   21   22 ar
    35   21   34 1
    36   22   23 ar
    37   22   35 1
    38   23   24 1
    39   24   36 1
    40   25   37 1
    41   25   38 1
@<TRIPOS>MOLECULE
ZINC04453561
   44    46     0     0     0
SMALL
USER_CHARGES

@<TRIPOS>ATOM
      1 C1         -0.4110    1.6487    0.3638 C.3       1 <0>        -0.1504
      2 C2         -0.3144    0.1219    0.3398 C.3       1 <0>         0.0514
      3 N1         -1.6607   -0.4520    0.2126 N.3       1 <0>        -0.5242
      4 C3         -2.4622   -0.1919    1.4219 C.3       1 <0>         0.0779
      5 C4         -3.8713   -0.6540    1.1425 C.2       1 <0>        -0.1212
      6 C5         -4.0804   -1.6934    0.3564 C.2       1 <0>        -0.0496
      7 C6         -2.9656   -2.4965   -0.2506 C.3       1 <0>        -0.0338
      8 H1         -2.9584   -3.4726    0.2345 H         1 <0>         0.0943
      9 C7         -1.5949   -1.8921   -0.0507 C.3       1 <0>         0.0615
     10 C8         -3.2888   -2.7161   -1.7293 C.3       1 <0>        -0.0205
     11 H2         -2.4689   -3.2530   -2.2064 H         1 <0>         0.1271
     12 C9         -4.5725   -3.5398   -1.8384 C.3       1 <0>         0.2096
     13 C10        -5.6760   -2.9657   -1.0023 C.2       1 <0>         0.2333
     14 C11        -5.4670   -2.1128    0.0332 C.2       1 <0>        -0.1239
     15 C12        -6.5705   -1.6240    0.8039 C.1       1 <0>         0.2585
     16 N2         -7.4460   -1.2362    1.4153 N.1       1 <0>        -0.4157
     17 N3         -6.9623   -3.3199   -1.2983 N.pl3     1 <0>        -0.8405
     18 C13        -5.0038   -3.5713   -3.2454 C.1       1 <0>         0.1877
     19 N4         -5.3367   -3.5956   -4.3313 N.1       1 <0>        -0.3416
     20 C14        -4.2988   -4.9155   -1.3919 C.1       1 <0>         0.1966
     21 N5         -4.0875   -5.9771   -1.0474 N.1       1 <0>        -0.3464
     22 C15        -3.4819   -1.3840   -2.4070 C.ar      1 <0>        -0.0606
     23 C16        -2.4077   -0.7512   -3.0048 C.ar      1 <0>        -0.0638
     24 C17        -2.5823    0.4705   -3.6269 C.ar      1 <0>        -0.1177
     25 C18        -3.8336    1.0617   -3.6524 C.ar      1 <0>         0.0738
     26 C19        -4.9108    0.4270   -3.0532 C.ar      1 <0>         0.0741
     27 C20        -4.7337   -0.7988   -2.4352 C.ar      1 <0>        -0.1291
     28 F1         -6.1330    1.0023   -3.0764 F         1 <0>        -0.1279
     29 F2         -4.0049    2.2562   -4.2599 F         1 <0>        -0.1283
     30 H3          0.5880    2.0745    0.4582 H         1 <0>         0.0589
     31 H4         -0.8690    1.9983   -0.5615 H         1 <0>         0.0643
     32 H5         -1.0207    1.9609    1.2116 H         1 <0>         0.0548
     33 H6          0.2953   -0.1903   -0.5081 H         1 <0>         0.0770
     34 H7          0.1437   -0.2278    1.2650 H         1 <0>         0.0355
     35 H8         -2.0510   -0.7474    2.2648 H         1 <0>         0.0541
     36 H9         -2.4601    0.8751    1.6446 H         1 <0>         0.0927
     37 H10        -4.7081   -0.1348    1.5858 H         1 <0>         0.1171
     38 H11        -0.9991   -2.0613   -0.9476 H         1 <0>         0.0875
     39 H12        -1.1104   -2.3844    0.7924 H         1 <0>         0.0476
     40 H13        -7.1412   -3.9277   -2.0328 H         1 <0>         0.4072
     41 H14        -7.6964   -2.9636   -0.7738 H         1 <0>         0.4155
     42 H15        -1.4312   -1.2120   -2.9853 H         1 <0>         0.1411
     43 H16        -1.7423    0.9641   -4.0930 H         1 <0>         0.1473
     44 H17        -5.5728   -1.2960   -1.9714 H         1 <0>         0.1484
@<TRIPOS>BOND
     1    1    2 1
     2    1   30 1
     3    1   31 1
     4    1   32 1
     5    2    3 1
     6    2   33 1
     7    2   34 1
     8    3    9 1
     9    3    4 1
    10    4    5 1
    11    4   35 1
    12    4   36 1
    13    5    6 2
    14    5   37 1
    15    6   14 1
    16    6    7 1
    17    7    8 1
    18    7    9 1
    19    7   10 1
    20    9   38 1
    21    9   39 1
    22   10   11 1
    23   10   12 1
    24   10   22 1
    25   12   13 1
    26   12   18 1
    27   12   20 1
    28   13   14 2
    29   13   17 1
    30   14   15 1
    31   15   16 3
    32   17   40 1
    33   17   41 1
    34   18   19 3
    35   20   21 3
    36   22   27 ar
    37   22   23 ar
    38   23   24 ar
    39   23   42 1
    40   24   25 ar
    41   24   43 1
    42   25   26 ar
    43   25   29 1
    44   26   27 ar
    45   26   28 1
    46   27   44 1
@<TRIPOS>MOLECULE
ZINC42015547
   35    37     0     0     0
SMALL
USER_CHARGES

@<TRIPOS>ATOM
      1 C1          0.6270    0.5301    0.5763 C.3       1 <0>        -0.1642
      2 C2          0.1413   -0.9041    0.3569 C.3       1 <0>         0.1847
      3 H1          0.6231   -1.3195   -0.5281 H         1 <0>         0.1269
      4 C3          0.4909   -1.7424    1.5594 C.ar      1 <0>        -0.1192
      5 C4         -0.0128   -1.4108    2.8033 C.ar      1 <0>        -0.0848
      6 C5          0.3079   -2.1797    3.9063 C.ar      1 <0>        -0.1207
      7 C6          1.1320   -3.2806    3.7654 C.ar      1 <0>        -0.1046
      8 C7          1.6350   -3.6128    2.5214 C.ar      1 <0>        -0.1223
      9 C8          1.3108   -2.8463    1.4177 C.ar      1 <0>        -0.0986
     10 N1         -1.3114   -0.9040    0.1674 N.pl3     1 <0>        -0.3602
     11 C9         -1.9950   -1.2228   -0.9595 C.2       1 <0>         0.2845
     12 N2         -3.2754   -1.0877   -0.6854 N.2       1 <0>        -0.3171
     13 N3         -3.4372   -0.7079    0.5306 N.2       1 <0>        -0.0391
     14 N4         -2.2963   -0.5793    1.1166 N.2       1 <0>        -0.0730
     15 C10        -1.4117   -1.6428   -2.2534 C.ar      1 <0>         0.0295
     16 C11        -0.1745   -1.1410   -2.6588 C.ar      1 <0>        -0.1602
     17 C12         0.3682   -1.5339   -3.8653 C.ar      1 <0>        -0.0338
     18 C13        -0.3105   -2.4253   -4.6762 C.ar      1 <0>        -0.1564
     19 C14        -1.5441   -2.9308   -4.2805 C.ar      1 <0>         0.2526
     20 C15        -2.0940   -2.5452   -3.0675 C.ar      1 <0>        -0.1383
     21 N5         -2.2269   -3.8311   -5.1028 N.pl3     1 <0>        -0.8628
     22 Br1         0.4406   -2.9576   -6.3280 Br        1 <0>        -0.0390
     23 H2          1.7079    0.5300    0.7174 H         1 <0>         0.0915
     24 H3          0.3741    1.1364   -0.2934 H         1 <0>         0.0708
     25 H4          0.1452    0.9455    1.4614 H         1 <0>         0.0777
     26 H5         -0.6567   -0.5507    2.9134 H         1 <0>         0.1327
     27 H6         -0.0851   -1.9202    4.8782 H         1 <0>         0.1274
     28 H7          1.3832   -3.8810    4.6273 H         1 <0>         0.1260
     29 H8          2.2791   -4.4726    2.4114 H         1 <0>         0.1274
     30 H9          1.7008   -3.1080    0.4451 H         1 <0>         0.1255
     31 H10         0.3584   -0.4445   -2.0285 H         1 <0>         0.1347
     32 H11         1.3258   -1.1440   -4.1773 H         1 <0>         0.1440
     33 H12        -3.0498   -2.9400   -2.7562 H         1 <0>         0.1454
     34 H13        -1.8403   -4.1036   -5.9497 H         1 <0>         0.4059
     35 H14        -3.0873   -4.1836   -4.8266 H         1 <0>         0.4070
@<TRIPOS>BOND
     1    1    2 1
     2    1   23 1
     3    1   24 1
     4    1   25 1
     5    2    3 1
     6    2    4 1
     7    2   10 1
     8    4    9 ar
     9    4    5 ar
    10    5    6 ar
    11    5   26 1
    12    6    7 ar
    13    6   27 1
    14    7    8 ar
    15    7   28 1
    16    8    9 ar
    17    8   29 1
    18    9   30 1
    19   10   14 1
    20   10   11 1
    21   11   12 2
    22   11   15 1
    23   12   13 1
    24   13   14 2
    25   15   20 ar
    26   15   16 ar
    27   16   17 ar
    28   16   31 1
    29   17   18 ar
    30   17   32 1
    31   18   19 ar
    32   18   22 1
    33   19   20 ar
    34   19   21 1
    35   20   33 1
    36   21   34 1
    37   21   35 1
@<TRIPOS>MOLECULE
ZINC07040340
   46    49     0     0     0
SMALL
USER_CHARGES

@<TRIPOS>ATOM
      1 C1         -0.0187    1.5258    0.0104 C.3       1 <0>        -0.1520
      2 C2          0.0021   -0.0041    0.0020 C.3       1 <0>         0.0511
      3 O1          0.6709   -0.4649   -1.1737 O.3       1 <0>        -0.3041
      4 C3          0.7768   -1.8109   -1.3363 C.ar      1 <0>         0.1059
      5 C4          0.2435   -2.6690   -0.3879 C.ar      1 <0>        -0.1658
      6 C5          0.3516   -4.0370   -0.5549 C.ar      1 <0>        -0.0967
      7 C6          0.9916   -4.5523   -1.6668 C.ar      1 <0>        -0.1082
      8 C7          1.5263   -3.7019   -2.6164 C.ar      1 <0>        -0.1088
      9 C8          1.4160   -2.3297   -2.4582 C.ar      1 <0>         0.0894
     10 O2          1.9361   -1.4917   -3.3945 O.3       1 <0>        -0.4845
     11 C9         -0.2290   -4.9686    0.4775 C.3       1 <0>         0.4571
     12 H1         -0.3655   -4.4324    1.4167 H         1 <0>         0.1187
     13 N1          0.6841   -6.1011    0.6865 N.pl3     1 <0>        -0.7448
     14 C10         0.7135   -7.1749   -0.2024 C.ar      1 <0>         0.2031
     15 C11         1.8675   -7.9088   -0.4142 C.ar      1 <0>        -0.1349
     16 C12         1.8538   -8.9746   -1.2950 C.ar      1 <0>        -0.0736
     17 C13         0.6954   -9.3192   -1.9704 C.ar      1 <0>        -0.1498
     18 C14        -0.4663   -8.5946   -1.7752 C.ar      1 <0>        -0.0576
     19 C15        -0.4612   -7.5220   -0.8994 C.ar      1 <0>        -0.0893
     20 C16        -1.6446   -6.6768   -0.6513 C.2       1 <0>         0.1308
     21 N2         -1.5217   -5.4738    0.0096 N.pl3     1 <0>        -0.3909
     22 N3         -2.7905   -4.9157    0.1073 N.2       1 <0>        -0.2709
     23 C17        -3.6466   -5.7261   -0.4716 C.2       1 <0>         0.0722
     24 C18        -2.9492   -6.8429   -0.9595 C.2       1 <0>        -0.2381
     25 C19        -5.1311   -5.4956   -0.5915 C.3       1 <0>        -0.0722
     26 C20         3.1364   -7.5474    0.3141 C.3       1 <0>        -0.1112
     27 H2          1.0039    1.9031    0.0027 H         1 <0>         0.0668
     28 H3         -0.5459    1.8868   -0.8726 H         1 <0>         0.0679
     29 H4         -0.5289    1.8773    0.9072 H         1 <0>         0.0802
     30 H5          0.5293   -0.3651    0.8851 H         1 <0>         0.0618
     31 H6         -1.0205   -0.3814    0.0098 H         1 <0>         0.0637
     32 H7         -0.2563   -2.2690    0.4819 H         1 <0>         0.1352
     33 H8          1.0743   -5.6217   -1.7935 H         1 <0>         0.1304
     34 H9          2.0261   -4.1070   -3.4839 H         1 <0>         0.1389
     35 H10         2.8557   -1.2414   -3.2309 H         1 <0>         0.3888
     36 H11         1.2760   -6.1014    1.4549 H         1 <0>         0.4161
     37 H12         2.7567   -9.5442   -1.4582 H         1 <0>         0.1279
     38 H13         0.6991  -10.1567   -2.6523 H         1 <0>         0.1294
     39 H14        -1.3704   -8.8635   -2.3014 H         1 <0>         0.1315
     40 H15        -3.3778   -7.6828   -1.4861 H         1 <0>         0.1516
     41 H16        -5.3417   -4.9569   -1.5153 H         1 <0>         0.0779
     42 H17        -5.6479   -6.4552   -0.6046 H         1 <0>         0.0793
     43 H18        -5.4773   -4.9080    0.2588 H         1 <0>         0.0731
     44 H19         3.1815   -8.0918    1.2573 H         1 <0>         0.0687
     45 H20         3.9964   -7.8134   -0.3005 H         1 <0>         0.0714
     46 H21         3.1490   -6.4757    0.5122 H         1 <0>         0.0643
@<TRIPOS>BOND
     1    1    2 1
     2    1   27 1
     3    1   28 1
     4    1   29 1
     5    2    3 1
     6    2   30 1
     7    2   31 1
     8    3    4 1
     9    4    9 ar
    10    4    5 ar
    11    5    6 ar
    12    5   32 1
    13    6    7 ar
    14    6   11 1
    15    7    8 ar
    16    7   33 1
    17    8    9 ar
    18    8   34 1
    19    9   10 1
    20   10   35 1
    21   11   12 1
    22   11   21 1
    23   11   13 1
    24   13   14 1
    25   13   36 1
    26   14   19 ar
    27   14   15 ar
    28   15   16 ar
    29   15   26 1
    30   16   17 ar
    31   16   37 1
    32   17   18 ar
    33   17   38 1
    34   18   19 ar
    35   18   39 1
    36   19   20 1
    37   20   24 2
    38   20   21 1
    39   21   22 1
    40   22   23 2
    41   23   24 1
    42   23   25 1
    43   24   40 1
    44   25   41 1
    45   25   42 1
    46   25   43 1
    47   26   44 1
    48   26   45 1
    49   26   46 1
@<TRIPOS>MOLECULE
ZINC01516659
   39    42     0     0     0
SMALL
USER_CHARGES
acetyl-amino-(4-pyridyl)BLAHcarbonitrile
@<TRIPOS>ATOM
      1 C1          1.1311    6.7039   -1.2770 C.3       1 <0>        -0.1867
      2 C2          0.5577    6.2108    0.0265 C.2       1 <0>         0.5453
      3 O1          0.9021    6.7201    1.0715 O.2       1 <0>        -0.4194
      4 N1         -0.3378    5.2036    0.0307 N.am      1 <0>        -0.4893
      5 C3         -0.0219    3.8543    0.0244 C.ar      1 <0>         0.1302
      6 C4          1.1811    3.1604    0.0129 C.ar      1 <0>        -0.1271
      7 C5          1.1819    1.7821    0.0081 C.ar      1 <0>        -0.0787
      8 C6         -0.0125    1.0758    0.0147 C.ar      1 <0>        -0.1348
      9 C7         -1.2160    1.7440    0.0210 C.ar      1 <0>        -0.0591
     10 C8         -1.2343    3.1396    0.0313 C.ar      1 <0>        -0.0741
     11 C9         -2.2959    4.1448    0.0422 C.2       1 <0>         0.0345
     12 C10        -1.7023    5.3583    0.0417 C.2       1 <0>         0.0527
     13 C11        -2.4950    6.6435    0.0525 C.3       1 <0>         0.1111
     14 H1         -2.1085    7.3196   -0.7101 H         1 <0>         0.1005
     15 C12        -3.9363    6.3155   -0.2431 C.2       1 <0>        -0.2870
     16 C13        -4.4100    5.0489   -0.2256 C.2       1 <0>         0.4514
     17 O2         -3.6436    3.9740    0.0499 O.3       1 <0>        -0.2095
     18 N2         -5.7395    4.8471   -0.5021 N.pl3     1 <0>        -0.8261
     19 C14        -4.8370    7.3844   -0.5543 C.1       1 <0>         0.2716
     20 N3         -5.5515    8.2324   -0.8011 N.1       1 <0>        -0.4377
     21 C15        -2.3900    7.2932    1.4082 C.ar      1 <0>        -0.0427
     22 C16        -2.8140    6.6283    2.5486 C.ar      1 <0>        -0.1486
     23 C17        -2.6975    7.2539    3.7755 C.ar      1 <0>         0.1018
     24 N4         -2.2001    8.4717    3.8671 N.ar      1 <0>        -0.4809
     25 C18        -1.7921    9.1360    2.8034 C.ar      1 <0>         0.1051
     26 C19        -1.8725    8.5723    1.5441 C.ar      1 <0>        -0.1609
     27 H2          0.6420    6.1921   -2.1058 H         1 <0>         0.0924
     28 H3          0.9648    7.7776   -1.3640 H         1 <0>         0.1108
     29 H4          2.2013    6.4986   -1.3040 H         1 <0>         0.1116
     30 H5          2.1162    3.7009    0.0081 H         1 <0>         0.1266
     31 H6          2.1201    1.2472   -0.0006 H         1 <0>         0.1356
     32 H7          0.0022   -0.0041    0.0104 H         1 <0>         0.1335
     33 H8         -2.1432    1.1901    0.0217 H         1 <0>         0.1333
     34 H9         -6.1051    3.9487   -0.4960 H         1 <0>         0.4139
     35 H10        -6.3131    5.6029   -0.7036 H         1 <0>         0.4266
     36 H11        -3.2264    5.6325    2.4796 H         1 <0>         0.1296
     37 H12        -3.0210    6.7409    4.6691 H         1 <0>         0.1564
     38 H13        -1.3902   10.1319    2.9177 H         1 <0>         0.1567
     39 H14        -1.5361    9.1210    0.6769 H         1 <0>         0.1312
@<TRIPOS>BOND
     1    1    2 1
     2    1   27 1
     3    1   28 1
     4    1   29 1
     5    2    3 2
     6    2    4 am
     7    4   12 1
     8    4    5 1
     9    5   10 ar
    10    5    6 ar
    11    6    7 ar
    12    6   30 1
    13    7    8 ar
    14    7   31 1
    15    8    9 ar
    16    8   32 1
    17    9   10 ar
    18    9   33 1
    19   10   11 1
    20   11   17 1
    21   11   12 2
    22   12   13 1
    23   13   14 1
    24   13   15 1
    25   13   21 1
    26   15   16 2
    27   15   19 1
    28   16   17 1
    29   16   18 1
    30   18   34 1
    31   18   35 1
    32   19   20 3
    33   21   26 ar
    34   21   22 ar
    35   22   23 ar
    36   22   36 1
    37   23   24 ar
    38   23   37 1
    39   24   25 ar
    40   25   26 ar
    41   25   38 1
    42   26   39 1
@<TRIPOS>MOLECULE
ZINC08962309
   35    36     0     0     0
SMALL
USER_CHARGES
1-bromo-N-(4,4-dimethyl-6-oxo-2-oxa-5-azabicyclo[5.4.0]undeca-8,10,12-trien-9-yl)-methanesulfonamide
@<TRIPOS>ATOM
      1 C1          0.8879   -1.9800    1.5269 C.3       1 <0>        -0.1545
      2 C2          1.0275   -0.5566    0.9833 C.3       1 <0>         0.1270
      3 C3         -0.0039   -0.3364   -0.1156 C.3       1 <0>         0.0552
      4 O1         -0.1505    1.0432   -0.4275 O.3       1 <0>        -0.3181
      5 C4          0.9866    1.7737   -0.5561 C.ar      1 <0>         0.1264
      6 C5          1.4366    2.1764   -1.8021 C.ar      1 <0>        -0.1121
      7 C6          2.5991    2.9136   -1.9118 C.ar      1 <0>        -0.1137
      8 C7          3.3262    3.2565   -0.7764 C.ar      1 <0>         0.1202
      9 C8          2.8868    2.8628    0.4771 C.ar      1 <0>        -0.0689
     10 C9          1.7132    2.1206    0.5935 C.ar      1 <0>        -0.1360
     11 C10         1.2123    1.6883    1.9124 C.2       1 <0>         0.5751
     12 O2          1.1403    2.4763    2.8356 O.2       1 <0>        -0.5209
     13 N1          0.8337    0.3978    2.0763 N.am      1 <0>        -0.7135
     14 N2          4.5046    4.0015   -0.9007 N.pl3     1 <0>        -1.0504
     15 S1          4.5475    5.3226   -1.8983 S.o2      1 <0>         2.6179
     16 O3          5.8789    5.8091   -1.7986 O.2       1 <0>        -0.9215
     17 O4          4.0378    4.8561   -3.1400 O.2       1 <0>        -0.9204
     18 C11         3.3923    6.5066   -1.1539 C.3       1 <0>        -0.6285
     19 Br1         3.3385    8.1427   -2.2427 Br        1 <0>        -0.0550
     20 C12         2.4305   -0.3755    0.4006 C.3       1 <0>        -0.1876
     21 H1          1.0541   -2.6947    0.7209 H         1 <0>         0.0811
     22 H2          1.6244   -2.1421    2.3139 H         1 <0>         0.0733
     23 H3         -0.1142   -2.1171    1.9332 H         1 <0>         0.0696
     24 H4         -0.9650   -0.7307    0.2143 H         1 <0>         0.1101
     25 H5          0.3106   -0.8722   -1.0112 H         1 <0>         0.0763
     26 H6          0.8780    1.9142   -2.6885 H         1 <0>         0.1502
     27 H7          2.9465    3.2257   -2.8856 H         1 <0>         0.1732
     28 H8          3.4505    3.1295    1.3588 H         1 <0>         0.1451
     29 H9          0.4364    0.1081    2.9125 H         1 <0>         0.4087
     30 H10         5.2960    3.7440   -0.4026 H         1 <0>         0.4322
     31 H11         2.3965    6.0652   -1.1120 H         1 <0>         0.1659
     32 H12         3.7236    6.7523   -0.1450 H         1 <0>         0.1678
     33 H13         2.4259    0.4534   -0.3071 H         1 <0>         0.0787
     34 H14         3.1335   -0.1619    1.2058 H         1 <0>         0.0704
     35 H15         2.7319   -1.2891   -0.1118 H         1 <0>         0.0766
@<TRIPOS>BOND
     1    1    2 1
     2    1   21 1
     3    1   22 1
     4    1   23 1
     5    2   13 1
     6    2    3 1
     7    2   20 1
     8    3    4 1
     9    3   24 1
    10    3   25 1
    11    4    5 1
    12    5   10 ar
    13    5    6 ar
    14    6    7 ar
    15    6   26 1
    16    7    8 ar
    17    7   27 1
    18    8    9 ar
    19    8   14 1
    20    9   10 ar
    21    9   28 1
    22   10   11 1
    23   11   12 2
    24   11   13 am
    25   13   29 1
    26   14   15 1
    27   14   30 1
    28   15   16 2
    29   15   17 2
    30   15   18 1
    31   18   19 1
    32   18   31 1
    33   18   32 1
    34   20   33 1
    35   20   34 1
    36   20   35 1
@<TRIPOS>MOLECULE
ZINC04816191
   47    48     0     0     0
SMALL
USER_CHARGES

@<TRIPOS>ATOM
      1 C1         -0.7114    1.9262    0.1276 C.3       1 <0>        -0.1762
      2 C2         -0.3565    0.4380    0.1352 C.3       1 <0>        -0.0872
      3 H1          0.2039    0.1933   -0.7672 H         1 <0>         0.1019
      4 C3         -1.6403   -0.3924    0.1793 C.3       1 <0>        -0.1191
      5 C4         -2.4759    0.0089    1.3961 C.3       1 <0>        -0.1234
      6 C5         -1.7025   -0.3229    2.6766 C.3       1 <0>        -0.1226
      7 H2         -2.2490    0.0520    3.5419 H         1 <0>         0.1007
      8 C6         -0.3459    0.3425    2.6051 C.2       1 <0>         0.3649
      9 O1          0.0541    1.0322    3.5122 O.2       1 <0>        -0.4307
     10 C7          0.4969    0.1224    1.3681 C.3       1 <0>        -0.1301
     11 H3          0.8261   -0.9160    1.3294 H         1 <0>         0.1418
     12 C8          1.7130    1.0502    1.4025 C.3       1 <0>         0.0981
     13 C9          2.4547    0.9931    0.0869 C.2       1 <0>         0.2623
     14 C10         3.5591    0.2206    0.2033 C.2       1 <0>        -0.3430
     15 C11         3.6744   -0.3216    1.6093 C.3       1 <0>        -0.0368
     16 C12         2.7315    0.5617    2.4566 C.3       1 <0>         0.1676
     17 C13         3.4623    1.6954    3.0461 C.1       1 <0>         0.2022
     18 N1          4.0262    2.5703    3.5010 N.1       1 <0>        -0.3568
     19 C14         2.0658   -0.2326    3.5019 C.1       1 <0>         0.2069
     20 N2          1.5520   -0.8456    4.3086 N.1       1 <0>        -0.3535
     21 C15         4.4675   -0.0394   -0.8324 C.2       1 <0>         0.3936
     22 O2          5.4335   -0.7485   -0.6297 O.2       1 <0>        -0.4737
     23 N3          2.0664    1.6293   -1.0538 N.pl3     1 <0>        -0.8195
     24 C16         1.2943    2.4303    1.6967 C.1       1 <0>         0.1947
     25 N4          0.9712    3.4955    1.9238 N.1       1 <0>        -0.3658
     26 C17        -1.5303   -1.8386    2.7948 C.3       1 <0>        -0.0841
     27 C18        -0.9330   -2.1789    4.1616 C.3       1 <0>        -0.1741
     28 C19        -2.8927   -2.5195    2.6497 C.3       1 <0>        -0.1503
     29 H4          0.1916    2.5142   -0.0368 H         1 <0>         0.0542
     30 H5         -1.4252    2.1255   -0.6717 H         1 <0>         0.0813
     31 H6         -1.1533    2.1993    1.0859 H         1 <0>         0.0667
     32 H7         -2.2163   -0.2175   -0.7294 H         1 <0>         0.0826
     33 H8         -1.3855   -1.4500    0.2477 H         1 <0>         0.0803
     34 H9         -2.6785    1.0793    1.3608 H         1 <0>         0.0716
     35 H10        -3.4175   -0.5400    1.3875 H         1 <0>         0.0888
     36 H11         3.3502   -1.3618    1.6419 H         1 <0>         0.1101
     37 H12         4.7002   -0.2323    1.9668 H         1 <0>         0.1081
     38 H13         4.3088    0.3904   -1.8104 H         1 <0>         0.0844
     39 H14         1.2594    2.1675   -1.0584 H         1 <0>         0.4103
     40 H15         2.5971    1.5441   -1.8613 H         1 <0>         0.4180
     41 H16        -0.8626   -2.1908    2.0085 H         1 <0>         0.0763
     42 H17        -1.3954   -1.5544    4.9259 H         1 <0>         0.0557
     43 H18        -1.1194   -3.2287    4.3884 H         1 <0>         0.0594
     44 H19         0.1415   -1.9962    4.1443 H         1 <0>         0.0834
     45 H20        -2.7701   -3.5993    2.7339 H         1 <0>         0.0610
     46 H21        -3.5605   -2.1673    3.4360 H         1 <0>         0.0575
     47 H22        -3.3183   -2.2770    1.6760 H         1 <0>         0.0627
@<TRIPOS>BOND
     1    1    2 1
     2    1   29 1
     3    1   30 1
     4    1   31 1
     5    2    3 1
     6    2   10 1
     7    2    4 1
     8    4    5 1
     9    4   32 1
    10    4   33 1
    11    5    6 1
    12    5   34 1
    13    5   35 1
    14    6    7 1
    15    6    8 1
    16    6   26 1
    17    8    9 2
    18    8   10 1
    19   10   11 1
    20   10   12 1
    21   12   16 1
    22   12   13 1
    23   12   24 1
    24   13   14 2
    25   13   23 1
    26   14   15 1
    27   14   21 1
    28   15   16 1
    29   15   36 1
    30   15   37 1
    31   16   17 1
    32   16   19 1
    33   17   18 3
    34   19   20 3
    35   21   22 2
    36   21   38 1
    37   23   39 1
    38   23   40 1
    39   24   25 3
    40   26   27 1
    41   26   28 1
    42   26   41 1
    43   27   42 1
    44   27   43 1
    45   27   44 1
    46   28   45 1
    47   28   46 1
    48   28   47 1
@<TRIPOS>MOLECULE
ZINC56587274
   49    51     0     0     0
SMALL
USER_CHARGES

@<TRIPOS>ATOM
      1 C1          3.4030   -4.4378   -1.4031 C.3       1 <0>        -0.1049
      2 C2          3.4084   -3.5845   -0.1610 C.ar      1 <0>         0.1599
      3 C3          3.9575   -2.3180   -0.2064 C.ar      1 <0>        -0.2040
      4 C4          3.9596   -1.5368    0.9408 C.ar      1 <0>        -0.0438
      5 C5          3.4070   -2.0599    2.0968 C.ar      1 <0>        -0.2138
      6 C6          2.8719   -3.3425    2.0700 C.ar      1 <0>         0.3629
      7 N1          2.8839   -4.0546    0.9542 N.ar      1 <0>        -0.4784
      8 N2          2.3126   -3.8818    3.2275 N.am      1 <0>        -0.6628
      9 C7          1.6874   -5.0749    3.1812 C.2       1 <0>         0.5121
     10 O1          1.7031   -5.7284    2.1597 O.2       1 <0>        -0.4612
     11 C8          0.9688   -5.5968    4.3987 C.3       1 <0>        -0.1220
     12 H1          1.6762   -5.7023    5.2213 H         1 <0>         0.1053
     13 C9          0.3483   -6.9591    4.0807 C.3       1 <0>        -0.1006
     14 C10        -0.3538   -7.5050    5.3262 C.3       1 <0>        -0.1353
     15 C11        -1.4761   -6.5464    5.7362 C.3       1 <0>         0.1058
     16 N3         -0.9110   -5.2005    5.9032 N.am      1 <0>        -0.6226
     17 C12        -0.1380   -4.6161    4.7987 C.3       1 <0>         0.1401
     18 C13        -1.0980   -4.5144    7.0482 C.2       1 <0>         0.7115
     19 O2         -0.7132   -3.3645    7.1376 O.2       1 <0>        -0.5684
     20 N4         -1.7115   -5.1030    8.0939 N.am      1 <0>        -0.6855
     21 C14        -1.7453   -4.4611    9.3373 C.ar      1 <0>         0.1616
     22 C15        -1.8520   -3.0769    9.4020 C.ar      1 <0>        -0.1107
     23 C16        -1.8858   -2.4385   10.6272 C.ar      1 <0>        -0.0993
     24 C17        -1.8138   -3.1714   11.7947 C.ar      1 <0>        -0.1098
     25 C18        -1.7065   -4.5617   11.7402 C.ar      1 <0>         0.0278
     26 C19        -1.6781   -5.2063   10.5039 C.ar      1 <0>        -0.1240
     27 C20        -1.6312   -5.3244   12.9498 C.1       1 <0>        -0.1534
     28 C21        -1.5694   -5.9497   13.9416 C.1       1 <0>        -0.1693
     29 H2          2.4888   -4.2527   -1.9671 H         1 <0>         0.0796
     30 H3          4.2668   -4.1882   -2.0192 H         1 <0>         0.0762
     31 H4          3.4494   -5.4898   -1.1214 H         1 <0>         0.0792
     32 H5          4.3812   -1.9396   -1.1250 H         1 <0>         0.1359
     33 H6          4.3831   -0.5433    0.9317 H         1 <0>         0.1391
     34 H7          3.3922   -1.4797    3.0076 H         1 <0>         0.1364
     35 H8          2.3734   -3.3984    4.0663 H         1 <0>         0.4186
     36 H9         -0.3767   -6.8486    3.2743 H         1 <0>         0.0766
     37 H10         1.1314   -7.6518    3.7723 H         1 <0>         0.0793
     38 H11        -0.7754   -8.4857    5.1057 H         1 <0>         0.0861
     39 H12         0.3656   -7.5925    6.1404 H         1 <0>         0.0710
     40 H13        -2.2420   -6.5275    4.9609 H         1 <0>         0.0790
     41 H14        -1.9143   -6.8781    6.6775 H         1 <0>         0.0790
     42 H15         0.3069   -3.6748    5.1213 H         1 <0>         0.1003
     43 H16        -0.7949   -4.4393    3.9471 H         1 <0>         0.0765
     44 H17        -2.1295   -5.9715    7.9849 H         1 <0>         0.4074
     45 H18        -1.9084   -2.4983    8.4918 H         1 <0>         0.1478
     46 H19        -1.9685   -1.3626   10.6714 H         1 <0>         0.1327
     47 H20        -1.8402   -2.6689   12.7503 H         1 <0>         0.1282
     48 H21        -1.5996   -6.2824   10.4557 H         1 <0>         0.1285
     49 H22        -1.5142   -6.5089   14.8285 H         1 <0>         0.2253
@<TRIPOS>BOND
     1    1    2 1
     2    1   29 1
     3    1   30 1
     4    1   31 1
     5    2    7 ar
     6    2    3 ar
     7    3    4 ar
     8    3   32 1
     9    4    5 ar
    10    4   33 1
    11    5    6 ar
    12    5   34 1
    13    6    7 ar
    14    6    8 1
    15    8    9 am
    16    8   35 1
    17    9   10 2
    18    9   11 1
    19   11   12 1
    20   11   17 1
    21   11   13 1
    22   13   14 1
    23   13   36 1
    24   13   37 1
    25   14   15 1
    26   14   38 1
    27   14   39 1
    28   15   16 1
    29   15   40 1
    30   15   41 1
    31   16   17 1
    32   16   18 am
    33   17   42 1
    34   17   43 1
    35   18   19 2
    36   18   20 am
    37   20   21 1
    38   20   44 1
    39   21   26 ar
    40   21   22 ar
    41   22   23 ar
    42   22   45 1
    43   23   24 ar
    44   23   46 1
    45   24   25 ar
    46   24   47 1
    47   25   26 ar
    48   25   27 1
    49   26   48 1
    50   27   28 3
    51   28   49 1
@<TRIPOS>MOLECULE
ZINC65331438
   42    45     0     0     0
SMALL
USER_CHARGES

@<TRIPOS>ATOM
      1 C1         -0.0173    1.4248    0.0099 C.3       1 <0>         0.0238
      2 O1          0.0021   -0.0041    0.0020 O.3       1 <0>        -0.3070
      3 C2          0.6262   -0.6188    1.0422 C.ar      1 <0>         0.1074
      4 C3          1.2021    0.1367    2.0510 C.ar      1 <0>        -0.1842
      5 C4          1.8358   -0.4897    3.1079 C.ar      1 <0>        -0.0477
      6 C5          1.8971   -1.8699    3.1612 C.ar      1 <0>        -0.1340
      7 C6          1.3251   -2.6295    2.1578 C.ar      1 <0>        -0.1012
      8 C7          0.6830   -2.0080    1.0988 C.ar      1 <0>         0.0752
      9 O2          0.1145   -2.7540    0.1140 O.3       1 <0>        -0.4864
     10 C8          2.4615    0.3336    4.2041 C.3       1 <0>         0.0396
     11 H1          2.3165    1.3936    3.9955 H         1 <0>         0.1106
     12 C9          3.9592    0.0249    4.2904 C.3       1 <0>        -0.1330
     13 C10         4.2102   -1.2969    4.9569 C.2       1 <0>         0.5368
     14 O3          5.1233   -1.9891    4.5590 O.2       1 <0>        -0.5061
     15 N1          3.4550   -1.7417    5.9845 N.am      1 <0>        -0.6512
     16 C11         2.3281   -1.0003    6.3382 C.2       1 <0>         0.3257
     17 C12         1.8275   -0.0152    5.5259 C.2       1 <0>        -0.2611
     18 C13         0.7129    0.5279    6.1470 C.2       1 <0>         0.1017
     19 N2          0.5350   -0.0924    7.2905 N.2       1 <0>        -0.2774
     20 N3          1.5450   -1.0613    7.4343 N.pl3     1 <0>        -0.3225
     21 C14         1.7074   -1.9335    8.5202 C.ar      1 <0>         0.1385
     22 C15         2.1831   -3.2211    8.3123 C.ar      1 <0>        -0.1124
     23 C16         2.3428   -4.0786    9.3831 C.ar      1 <0>        -0.1251
     24 C17         2.0283   -3.6550   10.6635 C.ar      1 <0>         0.1034
     25 C18         1.5537   -2.3710   10.8728 C.ar      1 <0>        -0.1286
     26 C19         1.3981   -1.5087    9.8052 C.ar      1 <0>        -0.0747
     27 F1          2.1844   -4.4955   11.7096 F         1 <0>        -0.1302
     28 H2          1.0053    1.8021    0.0021 H         1 <0>         0.0569
     29 H3         -0.5445    1.7859   -0.8732 H         1 <0>         0.1020
     30 H4         -0.5275    1.7763    0.9067 H         1 <0>         0.0574
     31 H5          1.1562    1.2150    2.0113 H         1 <0>         0.1369
     32 H6          2.3934   -2.3556    3.9883 H         1 <0>         0.1178
     33 H7          1.3747   -3.7075    2.2017 H         1 <0>         0.1349
     34 H8          0.7108   -2.9569   -0.6197 H         1 <0>         0.3875
     35 H9          4.3767    0.0014    3.2838 H         1 <0>         0.1177
     36 H10         4.4528    0.8113    4.8613 H         1 <0>         0.1150
     37 H11         3.6896   -2.5525    6.4624 H         1 <0>         0.4134
     38 H12         0.0968    1.3246    5.7570 H         1 <0>         0.1970
     39 H13         2.4278   -3.5521    7.3138 H         1 <0>         0.1341
     40 H14         2.7128   -5.0803    9.2217 H         1 <0>         0.1504
     41 H15         1.3090   -2.0423   11.8721 H         1 <0>         0.1502
     42 H16         1.0318   -0.5061    9.9694 H         1 <0>         0.1490
@<TRIPOS>BOND
     1    1    2 1
     2    1   28 1
     3    1   29 1
     4    1   30 1
     5    2    3 1
     6    3    8 ar
     7    3    4 ar
     8    4    5 ar
     9    4   31 1
    10    5    6 ar
    11    5   10 1
    12    6    7 ar
    13    6   32 1
    14    7    8 ar
    15    7   33 1
    16    8    9 1
    17    9   34 1
    18   10   11 1
    19   10   17 1
    20   10   12 1
    21   12   13 1
    22   12   35 1
    23   12   36 1
    24   13   14 2
    25   13   15 am
    26   15   16 1
    27   15   37 1
    28   16   20 1
    29   16   17 2
    30   17   18 1
    31   18   19 2
    32   18   38 1
    33   19   20 1
    34   20   21 1
    35   21   26 ar
    36   21   22 ar
    37   22   23 ar
    38   22   39 1
    39   23   24 ar
    40   23   40 1
    41   24   25 ar
    42   24   27 1
    43   25   26 ar
    44   25   41 1
    45   26   42 1
@<TRIPOS>MOLECULE
ZINC03432872
   38    40     0     0     0
SMALL
USER_CHARGES
2-(methyl-oxo-BLAHyl)sulfanylpropanamide
@<TRIPOS>ATOM
      1 C1         -1.3500    3.4996   -1.2739 C.3       1 <0>        -0.1469
      2 C2         -0.7479    4.0257    0.0306 C.3       1 <0>        -0.1190
      3 H1         -1.1815    3.4879    0.8737 H         1 <0>         0.1312
      4 C3         -1.0478    5.4964    0.1650 C.2       1 <0>         0.5396
      5 O1         -0.2344    6.3172   -0.2031 O.2       1 <0>        -0.5251
      6 N1         -2.2198    5.8995    0.6944 N.am      1 <0>        -0.8418
      7 S1          1.0445    3.7746    0.0122 S.3       1 <0>         0.0979
      8 C4          1.1067    2.0137    0.0023 C.2       1 <0>         0.3594
      9 N2         -0.0159    1.3235    0.0093 N.2       1 <0>        -0.4982
     10 C5          0.0021   -0.0041    0.0020 C.2       1 <0>         0.1152
     11 C6          1.2016   -0.7354   -0.0136 C.2       1 <0>        -0.2498
     12 C7          1.0618   -2.1929   -0.0212 C.2       1 <0>        -0.0458
     13 C8         -0.1926   -2.6872   -0.0121 C.2       1 <0>        -0.1701
     14 S2         -1.2486   -1.2636    0.0074 S.3       1 <0>         0.1421
     15 C9         -0.6002   -4.1291   -0.0169 C.3       1 <0>        -0.0364
     16 C10         0.6190   -4.9758   -0.4095 C.3       1 <0>        -0.1152
     17 C11         1.8226   -4.5169    0.4190 C.3       1 <0>        -0.1229
     18 C12         2.2683   -3.1274   -0.0382 C.3       1 <0>        -0.0598
     19 C13         2.4043    0.0399   -0.0204 C.2       1 <0>         0.5574
     20 O2          3.4930   -0.5084   -0.0337 O.2       1 <0>        -0.5151
     21 N3          2.3169    1.3828   -0.0125 N.am      1 <0>        -0.5122
     22 C14         3.5441    2.1828   -0.0204 C.3       1 <0>         0.0510
     23 H2         -1.1331    2.4358   -1.3712 H         1 <0>         0.0939
     24 H3         -2.4294    3.6508   -1.2629 H         1 <0>         0.0753
     25 H4         -0.9164    4.0374   -2.1170 H         1 <0>         0.0720
     26 H5         -2.8704    5.2430    0.9888 H         1 <0>         0.4063
     27 H6         -2.4129    6.8462    0.7809 H         1 <0>         0.4105
     28 H7         -0.9425   -4.4172    0.9770 H         1 <0>         0.0857
     29 H8         -1.4018   -4.2816   -0.7397 H         1 <0>         0.0840
     30 H9          0.4148   -6.0271   -0.2065 H         1 <0>         0.0761
     31 H10         0.8304   -4.8426   -1.4705 H         1 <0>         0.0693
     32 H11         1.5443   -4.4800    1.4722 H         1 <0>         0.0661
     33 H12         2.6437   -5.2213    0.2859 H         1 <0>         0.0718
     34 H13         2.6701   -3.1867   -1.0497 H         1 <0>         0.0789
     35 H14         3.0334   -2.7484    0.6393 H         1 <0>         0.0858
     36 H15         3.8383    2.3866   -1.0500 H         1 <0>         0.0895
     37 H16         3.3676    3.1241    0.5001 H         1 <0>         0.0936
     38 H17         4.3395    1.6330    0.4827 H         1 <0>         0.1059
@<TRIPOS>BOND
     1    1    2 1
     2    1   23 1
     3    1   24 1
     4    1   25 1
     5    2    3 1
     6    2    4 1
     7    2    7 1
     8    4    5 2
     9    4    6 am
    10    6   26 1
    11    6   27 1
    12    7    8 1
    13    8   21 1
    14    8    9 2
    15    9   10 1
    16   10   14 1
    17   10   11 2
    18   11   12 1
    19   11   19 1
    20   12   18 1
    21   12   13 2
    22   13   14 1
    23   13   15 1
    24   15   16 1
    25   15   28 1
    26   15   29 1
    27   16   17 1
    28   16   30 1
    29   16   31 1
    30   17   18 1
    31   17   32 1
    32   17   33 1
    33   18   34 1
    34   18   35 1
    35   19   20 2
    36   19   21 am
    37   21   22 1
    38   22   36 1
    39   22   37 1
    40   22   38 1
@<TRIPOS>MOLECULE
ZINC31916317
   38    41     0     0     0
SMALL
USER_CHARGES
2-[2-(2,3-dihydro-1,4-benzodioxin-6-yl)imidazo[1,2-a]pyridin-3-yl]thioacetamide
@<TRIPOS>ATOM
      1 C1         -6.9856   -3.8363   -0.0782 C.2       1 <0>        -0.1004
      2 C2         -7.4996   -2.9618    0.8935 C.2       1 <0>        -0.1399
      3 C3         -6.8332   -1.8331    1.2146 C.2       1 <0>         0.0612
      4 N1         -5.6528   -1.5242    0.6021 N.pl3     1 <0>        -0.3410
      5 C4         -5.1258   -2.3581   -0.3504 C.2       1 <0>         0.2381
      6 C5         -5.8106   -3.5411   -0.6965 C.2       1 <0>        -0.0775
      7 N2         -3.9915   -1.8289   -0.7848 N.2       1 <0>        -0.4750
      8 C6         -3.7647   -0.6783   -0.1317 C.2       1 <0>         0.1262
      9 C7         -4.7936   -0.4693    0.7364 C.2       1 <0>        -0.0280
     10 C8         -4.9546    0.7039    1.6685 C.3       1 <0>        -0.0367
     11 C9         -4.4230    0.3397    3.0308 C.2       1 <0>         0.2817
     12 S1         -3.8113   -1.1152    3.2876 S.2       1 <0>        -0.4450
     13 N3         -4.4631    1.2403    4.0327 N.pl3     1 <0>        -0.7996
     14 C10        -2.5966    0.2160   -0.3264 C.ar      1 <0>        -0.0057
     15 C11        -2.1251    0.4790   -1.6110 C.ar      1 <0>        -0.0808
     16 C12        -1.0357    1.3064   -1.7897 C.ar      1 <0>        -0.1131
     17 C13        -0.4103    1.8851   -0.6938 C.ar      1 <0>         0.0563
     18 C14        -0.8782    1.6276    0.5904 C.ar      1 <0>         0.0490
     19 C15        -1.9687    0.7939    0.7745 C.ar      1 <0>        -0.1000
     20 O1         -0.2771    2.1872    1.6761 O.3       1 <0>        -0.3082
     21 C16         1.0393    2.7154    1.4818 C.3       1 <0>         0.0172
     22 C17         1.0358    3.5512    0.1947 C.3       1 <0>         0.0189
     23 O2          0.6635    2.6981   -0.8929 O.3       1 <0>        -0.3047
     24 H1         -7.5208   -4.7391   -0.3330 H         1 <0>         0.1431
     25 H2         -8.4326   -3.1936    1.3857 H         1 <0>         0.1496
     26 H3         -7.2373   -1.1680    1.9634 H         1 <0>         0.1531
     27 H4         -5.4059   -4.2064   -1.4448 H         1 <0>         0.1521
     28 H5         -4.3946    1.5648    1.2745 H         1 <0>         0.1223
     29 H6         -6.0201    0.9652    1.7485 H         1 <0>         0.1036
     30 H7         -4.0751    0.9745    5.0271 H         1 <0>         0.4453
     31 H8         -4.8839    2.2412    3.8560 H         1 <0>         0.4167
     32 H9         -2.6106    0.0330   -2.4664 H         1 <0>         0.1392
     33 H10        -0.6719    1.5093   -2.7861 H         1 <0>         0.1396
     34 H11        -2.3319    0.5916    1.7712 H         1 <0>         0.1351
     35 H12         1.3119    3.3458    2.3410 H         1 <0>         0.1238
     36 H13         1.7573    1.8869    1.3924 H         1 <0>         0.0797
     37 H14         0.3126    4.3741    0.2938 H         1 <0>         0.0786
     38 H15         2.0406    3.9648    0.0233 H         1 <0>         0.1250
@<TRIPOS>BOND
     1    1    6 2
     2    1    2 1
     3    1   24 1
     4    2    3 2
     5    2   25 1
     6    3    4 1
     7    3   26 1
     8    4    9 1
     9    4    5 1
    10    5    6 1
    11    5    7 2
    12    6   27 1
    13    7    8 1
    14    8    9 2
    15    8   14 1
    16    9   10 1
    17   10   11 1
    18   10   28 1
    19   10   29 1
    20   11   12 2
    21   11   13 1
    22   13   30 1
    23   13   31 1
    24   14   19 ar
    25   14   15 ar
    26   15   16 ar
    27   15   32 1
    28   16   17 ar
    29   16   33 1
    30   17   23 1
    31   17   18 ar
    32   18   19 ar
    33   18   20 1
    34   19   34 1
    35   20   21 1
    36   21   22 1
    37   21   35 1
    38   21   36 1
    39   22   23 1
    40   22   37 1
    41   22   38 1
@<TRIPOS>MOLECULE
ZINC37928505
   39    40     0     0     0
SMALL
USER_CHARGES

@<TRIPOS>ATOM
      1 C1         -0.7407    0.0160   -1.9429 C.3       1 <0>        -0.1498
      2 C2         -0.8716    0.2474   -0.4362 C.3       1 <0>        -0.1587
      3 C3         -2.2147   -0.3015    0.0492 C.3       1 <0>         0.1198
      4 H1         -3.0225    0.1268   -0.5442 H         1 <0>         0.0849
      5 C4         -2.2279   -1.8284   -0.0866 C.3       1 <0>         0.0569
      6 O1         -3.4050   -2.3464    0.5379 O.3       1 <0>        -0.3733
      7 C5         -3.4811   -2.0948    1.9431 C.3       1 <0>         0.0768
      8 H2         -2.6028   -2.5120    2.4358 H         1 <0>         0.0662
      9 C6         -3.5321   -0.5815    2.1829 C.3       1 <0>         0.0855
     10 N1         -2.4065    0.0407    1.4675 N.pl3     1 <0>        -0.9951
     11 S1         -1.3854    1.0938    2.2360 S.o2      1 <0>         2.6949
     12 O2         -1.6268    0.9500    3.6289 O.2       1 <0>        -0.9465
     13 O3         -0.0993    0.9041    1.6622 O.2       1 <0>        -0.9364
     14 C7         -1.8950    2.7237    1.8021 C.ar      1 <0>        -0.8180
     15 C8         -1.1170    3.4868    0.9477 C.ar      1 <0>         0.2698
     16 C9         -1.5149    4.7669    0.6060 C.ar      1 <0>        -0.2625
     17 C10        -2.6959    5.2865    1.1203 C.ar      1 <0>         0.3215
     18 C11        -3.4747    4.5191    1.9768 C.ar      1 <0>        -0.2615
     19 C12        -3.0756    3.2376    2.3116 C.ar      1 <0>         0.2726
     20 F1         -3.8357    2.4887    3.1403 F         1 <0>        -0.1107
     21 N2         -3.0993    6.5788    0.7771 N.pl3     1 <0>        -0.8496
     22 F2          0.0316    2.9810    0.4477 F         1 <0>        -0.0946
     23 C13        -4.7435   -2.7461    2.5113 C.3       1 <0>        -0.1459
     24 H3          0.1681    0.4955   -2.3065 H         1 <0>         0.0643
     25 H4         -0.6918   -1.0544   -2.1432 H         1 <0>         0.0588
     26 H5         -1.6050    0.4419   -2.4524 H         1 <0>         0.0548
     27 H6         -0.0610   -0.2650    0.0819 H         1 <0>         0.1069
     28 H7         -0.8187    1.3158   -0.2268 H         1 <0>         0.0749
     29 H8         -2.2262   -2.1000   -1.1422 H         1 <0>         0.1092
     30 H9         -1.3451   -2.2447    0.3987 H         1 <0>         0.0604
     31 H10        -4.4728   -0.1814    1.8048 H         1 <0>         0.0798
     32 H11        -3.4476   -0.3759    3.2500 H         1 <0>         0.1078
     33 H12        -0.9076    5.3620   -0.0598 H         1 <0>         0.1515
     34 H13        -4.3932    4.9213    2.3781 H         1 <0>         0.1509
     35 H14        -2.5546    7.1142    0.1792 H         1 <0>         0.4105
     36 H15        -3.9242    6.9409    1.1367 H         1 <0>         0.4104
     37 H16        -4.7078   -3.8214    2.3365 H         1 <0>         0.0698
     38 H17        -4.8009   -2.5539    3.5827 H         1 <0>         0.0767
     39 H18        -5.6214   -2.3271    2.0195 H         1 <0>         0.0671
@<TRIPOS>BOND
     1    1    2 1
     2    1   24 1
     3    1   25 1
     4    1   26 1
     5    2    3 1
     6    2   27 1
     7    2   28 1
     8    3    4 1
     9    3   10 1
    10    3    5 1
    11    5    6 1
    12    5   29 1
    13    5   30 1
    14    6    7 1
    15    7    8 1
    16    7    9 1
    17    7   23 1
    18    9   10 1
    19    9   31 1
    20    9   32 1
    21   10   11 1
    22   11   12 2
    23   11   13 2
    24   11   14 1
    25   14   19 ar
    26   14   15 ar
    27   15   16 ar
    28   15   22 1
    29   16   17 ar
    30   16   33 1
    31   17   18 ar
    32   17   21 1
    33   18   19 ar
    34   18   34 1
    35   19   20 1
    36   21   35 1
    37   21   36 1
    38   23   37 1
    39   23   38 1
    40   23   39 1
@<TRIPOS>MOLECULE
ZINC49099408
   37    38     0     0     0
SMALL
USER_CHARGES

@<TRIPOS>ATOM
      1 C1         -0.0152    1.5252    0.0073 C.3       1 <0>        -0.1368
      2 C2         -0.0057   -0.0048    0.0083 C.3       1 <0>         0.1407
      3 H1          0.4192   -0.3682   -0.9274 H         1 <0>         0.0753
      4 C3         -1.4379   -0.5272    0.1591 C.3       1 <0>        -0.1324
      5 C4         -1.4087   -2.0509    0.2992 C.3       1 <0>        -0.1021
      6 C5         -0.6201   -2.4346    1.5534 C.3       1 <0>        -0.1249
      7 H2         -1.0834   -1.9783    2.4282 H         1 <0>         0.1050
      8 C6          0.8213   -1.9338    1.4184 C.3       1 <0>         0.1155
      9 N1          0.7995   -0.4916    1.1368 N.am      1 <0>        -0.6039
     10 C7          1.5016    0.3685    1.9009 C.2       1 <0>         0.5525
     11 O1          1.4004    1.5682    1.7175 O.2       1 <0>        -0.5296
     12 C8          2.3560   -0.1224    2.9160 C.2       1 <0>        -0.2112
     13 C9          2.9757    0.7426    3.7583 C.2       1 <0>         0.0146
     14 C10         3.8302    0.2516    4.7736 C.2       1 <0>         0.0102
     15 C11         4.5161    1.0133    5.6977 C.2       1 <0>        -0.1543
     16 C12         5.2316    0.1157    6.5031 C.2       1 <0>        -0.1567
     17 C13         4.9615   -1.1309    6.0506 C.2       1 <0>        -0.0154
     18 O2          4.1153   -1.0456    5.0147 O.3       1 <0>        -0.1508
     19 Br1         5.6598   -2.7349    6.7687 Br        1 <0>         0.0616
     20 C14        -0.6201   -3.9336    1.7085 C.2       1 <0>         0.5240
     21 O3         -1.1942   -4.6273    0.8962 O.2       1 <0>        -0.5333
     22 N2          0.0180   -4.5032    2.7501 N.am      1 <0>        -0.8553
     23 H3          0.9979    1.8947   -0.1508 H         1 <0>         0.0734
     24 H4         -0.6620    1.8839   -0.7934 H         1 <0>         0.0456
     25 H5         -0.3885    1.8868    0.9654 H         1 <0>         0.0714
     26 H6         -1.8934   -0.0889    1.0470 H         1 <0>         0.0700
     27 H7         -2.0194   -0.2539   -0.7214 H         1 <0>         0.0832
     28 H8         -2.4282   -2.4275    0.3819 H         1 <0>         0.0776
     29 H9         -0.9307   -2.4871   -0.5779 H         1 <0>         0.0745
     30 H10         1.3602   -2.1166    2.3481 H         1 <0>         0.0918
     31 H11         1.3146   -2.4565    0.5989 H         1 <0>         0.0792
     32 H12         2.5150   -1.1855    3.0207 H         1 <0>         0.1324
     33 H13         2.8166    1.8057    3.6536 H         1 <0>         0.1671
     34 H14         4.5042    2.0899    5.7837 H         1 <0>         0.1685
     35 H15         5.8779    0.3714    7.3298 H         1 <0>         0.1670
     36 H16         0.4772   -3.9483    3.3999 H         1 <0>         0.4011
     37 H17         0.0180   -5.4680    2.8500 H         1 <0>         0.4044
@<TRIPOS>BOND
     1    1    2 1
     2    1   23 1
     3    1   24 1
     4    1   25 1
     5    2    3 1
     6    2    9 1
     7    2    4 1
     8    4    5 1
     9    4   26 1
    10    4   27 1
    11    5    6 1
    12    5   28 1
    13    5   29 1
    14    6    7 1
    15    6    8 1
    16    6   20 1
    17    8    9 1
    18    8   30 1
    19    8   31 1
    20    9   10 am
    21   10   11 2
    22   10   12 1
    23   12   13 2
    24   12   32 1
    25   13   14 1
    26   13   33 1
    27   14   18 1
    28   14   15 2
    29   15   16 1
    30   15   34 1
    31   16   17 2
    32   16   35 1
    33   17   18 1
    34   17   19 1
    35   20   21 2
    36   20   22 am
    37   22   36 1
    38   22   37 1
@<TRIPOS>MOLECULE
ZINC37054813
   36    37     0     0     0
SMALL
USER_CHARGES

@<TRIPOS>ATOM
      1 C1         -0.0187    1.5258    0.0104 C.3       1 <0>        -0.1464
      2 C2          0.0021   -0.0041    0.0020 C.3       1 <0>         0.0756
      3 H1          0.5121   -0.3563   -0.8946 H         1 <0>         0.0615
      4 C3         -1.4357   -0.5357    0.0154 C.3       1 <0>         0.0890
      5 N1         -1.3891   -1.9954    0.1960 N.pl3     1 <0>        -0.9960
      6 C4         -0.5783   -2.5300    1.3016 C.3       1 <0>         0.0891
      7 C5          0.8176   -1.9012    1.2255 C.3       1 <0>         0.0756
      8 H2          1.3309   -2.2611    0.3338 H         1 <0>         0.0614
      9 O1          0.6913   -0.4787    1.1611 O.3       1 <0>        -0.3685
     10 C6          1.6209   -2.2882    2.4688 C.3       1 <0>        -0.1464
     11 S1         -2.2247   -3.0065   -0.8147 S.o2      1 <0>         2.6842
     12 O2         -2.4435   -4.2114   -0.0939 O.2       1 <0>        -0.9359
     13 O3         -3.2902   -2.2428   -1.3632 O.2       1 <0>        -0.9359
     14 C7         -1.1519   -3.4082   -2.1535 C.ar      1 <0>        -0.7366
     15 C8         -1.1348   -2.6145   -3.2870 C.ar      1 <0>         0.1094
     16 C9         -0.2942   -2.9273   -4.3387 C.ar      1 <0>        -0.2074
     17 C10         0.5343   -4.0392   -4.2568 C.ar      1 <0>         0.2937
     18 C11         0.5155   -4.8337   -3.1178 C.ar      1 <0>        -0.2074
     19 C12        -0.3237   -4.5135   -2.0671 C.ar      1 <0>         0.1094
     20 Cl1        -0.3431   -5.5022   -0.6403 Cl        1 <0>        -0.0133
     21 N2          1.3844   -4.3578   -5.3182 N.pl3     1 <0>        -0.8531
     22 Cl2        -2.1707   -1.2251   -3.3884 Cl        1 <0>        -0.0135
     23 H3          1.0039    1.9031    0.0027 H         1 <0>         0.0689
     24 H4         -0.5459    1.8868   -0.8726 H         1 <0>         0.0751
     25 H5         -0.5289    1.8773    0.9072 H         1 <0>         0.0688
     26 H6         -1.9874   -0.0814    0.8384 H         1 <0>         0.0869
     27 H7         -1.9238   -0.2981   -0.9298 H         1 <0>         0.0988
     28 H8         -1.0437   -2.2765    2.2541 H         1 <0>         0.0869
     29 H9         -0.4987   -3.6131    1.2081 H         1 <0>         0.0988
     30 H10         1.7137   -3.3731    2.5183 H         1 <0>         0.0752
     31 H11         2.6133   -1.8407    2.4140 H         1 <0>         0.0689
     32 H12         1.1079   -1.9264    3.3599 H         1 <0>         0.0688
     33 H13        -0.2818   -2.3080   -5.2234 H         1 <0>         0.1478
     34 H14         1.1584   -5.6990   -3.0516 H         1 <0>         0.1478
     35 H15         1.3966   -3.8025   -6.1134 H         1 <0>         0.4094
     36 H16         1.9627   -5.1345   -5.2601 H         1 <0>         0.4094
@<TRIPOS>BOND
     1    1    2 1
     2    1   23 1
     3    1   24 1
     4    1   25 1
     5    2    3 1
     6    2    9 1
     7    2    4 1
     8    4    5 1
     9    4   26 1
    10    4   27 1
    11    5    6 1
    12    5   11 1
    13    6    7 1
    14    6   28 1
    15    6   29 1
    16    7    8 1
    17    7    9 1
    18    7   10 1
    19   10   30 1
    20   10   31 1
    21   10   32 1
    22   11   12 2
    23   11   13 2
    24   11   14 1
    25   14   19 ar
    26   14   15 ar
    27   15   16 ar
    28   15   22 1
    29   16   17 ar
    30   16   33 1
    31   17   18 ar
    32   17   21 1
    33   18   19 ar
    34   18   34 1
    35   19   20 1
    36   21   35 1
    37   21   36 1
@<TRIPOS>MOLECULE
ZINC00752616
   41    43     0     0     0
SMALL
USER_CHARGES
2-amino-4-(3-bromo-4-methoxy-phenyl)-7-methyl-5-oxo-4,6,7,8-tetrahydrochromene-3-carbonitrile
@<TRIPOS>ATOM
      1 C1         -2.4573    4.0807    0.6568 C.3       1 <0>        -0.1485
      2 C2         -1.1480    3.2908    0.7075 C.3       1 <0>        -0.0852
      3 H1         -0.8501    3.1417    1.7454 H         1 <0>         0.0874
      4 C3         -0.0543    4.0600   -0.0358 C.3       1 <0>        -0.0775
      5 C4          1.2297    3.2639   -0.0175 C.2       1 <0>         0.1661
      6 C5          1.2028    1.9187    0.0009 C.2       1 <0>        -0.2603
      7 C6          2.4867    1.1247    0.0160 C.3       1 <0>         0.0978
      8 H2          2.3859    0.2875    0.7068 H         1 <0>         0.1015
      9 C7          3.6288    1.9982    0.4543 C.2       1 <0>        -0.2603
     10 C8          3.5148    3.3479    0.4119 C.2       1 <0>         0.4250
     11 O1          2.3928    3.9416   -0.0236 O.3       1 <0>        -0.2395
     12 N1          4.5697    4.1244    0.8227 N.pl3     1 <0>        -0.8292
     13 C9          4.8439    1.4007    0.9203 C.1       1 <0>         0.2697
     14 N2          5.8078    0.9268    1.2900 N.1       1 <0>        -0.4348
     15 C10         2.7643    0.5968   -1.3679 C.ar      1 <0>        -0.1055
     16 C11         2.9196    1.4762   -2.4237 C.ar      1 <0>        -0.0510
     17 C12         3.1789    0.9955   -3.6926 C.ar      1 <0>        -0.2031
     18 C13         3.2735   -0.3714   -3.9095 C.ar      1 <0>         0.1546
     19 C14         3.1120   -1.2526   -2.8494 C.ar      1 <0>        -0.1237
     20 C15         2.8575   -0.7660   -1.5808 C.ar      1 <0>        -0.0315
     21 Br1         3.2395   -3.1167   -3.1402 Br        1 <0>        -0.0355
     22 O2          3.5234   -0.8469   -5.1580 O.3       1 <0>        -0.3029
     23 C16         3.6783    0.1178   -6.2007 C.3       1 <0>         0.0250
     24 C17        -0.0144    1.2105    0.0087 C.2       1 <0>         0.4013
     25 O3          0.0021   -0.0041    0.0020 O.2       1 <0>        -0.4446
     26 C18        -1.3349    1.9315    0.0190 C.3       1 <0>        -0.1564
     27 H3         -2.7564    4.2220   -0.3818 H         1 <0>         0.0627
     28 H4         -3.2345    3.5304    1.1871 H         1 <0>         0.0671
     29 H5         -2.3138    5.0526    1.1289 H         1 <0>         0.0645
     30 H6          0.1081    5.0214    0.4514 H         1 <0>         0.1027
     31 H7         -0.3646    4.2242   -1.0677 H         1 <0>         0.1089
     32 H8          4.4992    5.0915    0.7964 H         1 <0>         0.4120
     33 H9          5.3855    3.7060    1.1394 H         1 <0>         0.4269
     34 H10         2.8422    2.5402   -2.2554 H         1 <0>         0.1227
     35 H11         3.3038    1.6831   -4.5160 H         1 <0>         0.1362
     36 H12         2.7317   -1.4509   -0.7553 H         1 <0>         0.1393
     37 H13         2.7656    0.7071   -6.2890 H         1 <0>         0.0577
     38 H14         4.5145    0.7762   -5.9652 H         1 <0>         0.0573
     39 H15         3.8730   -0.3939   -7.1432 H         1 <0>         0.1042
     40 H16        -1.6541    2.0736   -0.9180 H         1 <0>         0.0961
     41 H17        -2.0685    1.3422    0.5692 H         1 <0>         0.1029
@<TRIPOS>BOND
     1    1    2 1
     2    1   27 1
     3    1   28 1
     4    1   29 1
     5    2    3 1
     6    2   26 1
     7    2    4 1
     8    4    5 1
     9    4   30 1
    10    4   31 1
    11    5   11 1
    12    5    6 2
    13    6    7 1
    14    6   24 1
    15    7    8 1
    16    7    9 1
    17    7   15 1
    18    9   10 2
    19    9   13 1
    20   10   11 1
    21   10   12 1
    22   12   32 1
    23   12   33 1
    24   13   14 3
    25   15   20 ar
    26   15   16 ar
    27   16   17 ar
    28   16   34 1
    29   17   18 ar
    30   17   35 1
    31   18   19 ar
    32   18   22 1
    33   19   20 ar
    34   19   21 1
    35   20   36 1
    36   22   23 1
    37   23   37 1
    38   23   38 1
    39   23   39 1
    40   24   25 2
    41   24   26 1
    42   26   40 1
    43   26   41 1
@<TRIPOS>MOLECULE
ZINC12798524
   38    41     0     0     0
SMALL
USER_CHARGES
2-amino-6-[2-(trifluoromethyl)quinazolin-4-yl]-5,7-dihydro-4H-thieno[5,4-c]pyridine-3-carbonitrile
@<TRIPOS>ATOM
      1 C1         -0.6502   -1.3324   -2.3855 C.ar      1 <0>        -0.1090
      2 C2          0.5787   -1.9859   -2.3569 C.ar      1 <0>        -0.0717
      3 C3          1.5953   -1.5364   -1.5678 C.ar      1 <0>        -0.0949
      4 C4          1.4026   -0.3987   -0.7723 C.ar      1 <0>         0.1620
      5 C5          0.1517    0.2646   -0.8030 C.ar      1 <0>        -0.1235
      6 C6         -0.8713   -0.2228   -1.6240 C.ar      1 <0>        -0.0624
      7 C7         -0.0171    1.4119    0.0098 C.ar      1 <0>         0.4049
      8 N1          1.0053    1.8057    0.7576 N.ar      1 <0>        -0.5297
      9 C8          2.1565    1.1531    0.7533 C.ar      1 <0>         0.2603
     10 N2          2.3694    0.0854    0.0212 N.ar      1 <0>        -0.4610
     11 C9          3.2736    1.6593    1.6291 C.3       1 <0>         0.5463
     12 F1          4.4785    1.0658    1.2376 F         1 <0>        -0.1544
     13 F2          3.3745    3.0487    1.4998 F         1 <0>        -0.1591
     14 F3          3.0048    1.3334    2.9628 F         1 <0>        -0.1630
     15 N3         -1.2093    2.1039    0.0192 N.pl3     1 <0>        -0.4732
     16 C10        -0.9780    3.5497    0.1456 C.3       1 <0>         0.0594
     17 C11        -2.2503    4.3201   -0.2192 C.3       1 <0>        -0.0591
     18 C12        -3.4052    3.7394    0.5884 C.2       1 <0>        -0.0147
     19 C13        -3.2862    2.5211    1.1630 C.2       1 <0>        -0.2241
     20 S1         -4.8309    2.2557    1.9825 S.3       1 <0>         0.1697
     21 C14        -5.6258    3.7392    1.5688 C.2       1 <0>         0.1776
     22 C15        -4.6758    4.4059    0.8055 C.2       1 <0>        -0.1938
     23 C16        -4.9399    5.7011    0.2547 C.1       1 <0>         0.2742
     24 N4         -5.1494    6.7286   -0.1823 N.1       1 <0>        -0.4370
     25 N5         -6.8986    4.1580    1.9150 N.pl3     1 <0>        -0.8050
     26 C17        -2.0928    1.6203    1.0970 C.3       1 <0>         0.1545
     27 H1         -1.4392   -1.7092   -3.0195 H         1 <0>         0.1395
     28 H2          0.7288   -2.8629   -2.9690 H         1 <0>         0.1417
     29 H3          2.5432   -2.0539   -1.5556 H         1 <0>         0.1479
     30 H4         -1.8288    0.2760   -1.6544 H         1 <0>         0.1500
     31 H5         -0.6966    3.7824    1.1726 H         1 <0>         0.0690
     32 H6         -0.1711    3.8466   -0.5244 H         1 <0>         0.0886
     33 H7         -2.1244    5.3749    0.0249 H         1 <0>         0.0900
     34 H8         -2.4543    4.2101   -1.2843 H         1 <0>         0.0934
     35 H9         -7.4652    3.5890    2.4590 H         1 <0>         0.4169
     36 H10        -7.2240    5.0207    1.6135 H         1 <0>         0.4144
     37 H11        -2.4129    0.6011    0.8805 H         1 <0>         0.1021
     38 H12        -1.5604    1.6450    2.0478 H         1 <0>         0.0734
@<TRIPOS>BOND
     1    1    6 ar
     2    1    2 ar
     3    1   27 1
     4    2    3 ar
     5    2   28 1
     6    3    4 ar
     7    3   29 1
     8    4   10 ar
     9    4    5 ar
    10    5    6 ar
    11    5    7 ar
    12    6   30 1
    13    7    8 ar
    14    7   15 1
    15    8    9 ar
    16    9   10 ar
    17    9   11 1
    18   11   12 1
    19   11   13 1
    20   11   14 1
    21   15   26 1
    22   15   16 1
    23   16   17 1
    24   16   31 1
    25   16   32 1
    26   17   18 1
    27   17   33 1
    28   17   34 1
    29   18   22 1
    30   18   19 2
    31   19   20 1
    32   19   26 1
    33   20   21 1
    34   21   22 2
    35   21   25 1
    36   22   23 1
    37   23   24 3
    38   25   35 1
    39   25   36 1
    40   26   37 1
    41   26   38 1
@<TRIPOS>MOLECULE
ZINC04627240
   33    35     0     0     0
SMALL
USER_CHARGES
(4Z)-2-(2-bromophenyl)-4-[[(4-hydroxyphenyl)amino]methylene]oxazol-5-one
@<TRIPOS>ATOM
      1 C1         -0.0166    1.3750    0.0096 C.ar      1 <0>        -0.1049
      2 C2          1.1703    2.0868    0.0021 C.ar      1 <0>        -0.0955
      3 C3          2.3830    1.4219   -0.0130 C.ar      1 <0>        -0.0936
      4 C4          2.4168    0.0416   -0.0207 C.ar      1 <0>        -0.0530
      5 C5          1.2224   -0.6827   -0.0133 C.ar      1 <0>         0.0050
      6 C6          0.0021   -0.0041    0.0020 C.ar      1 <0>        -0.0810
      7 C7          1.2501   -2.1596   -0.0210 C.2       1 <0>         0.2656
      8 N1          2.3348   -2.8835   -0.0403 N.2       1 <0>        -0.4211
      9 C8          1.9829   -4.2041   -0.0381 C.2       1 <0>        -0.2426
     10 C9          2.8363   -5.2885   -0.0521 C.2       1 <0>         0.3185
     11 N2          4.1826   -5.0944   -0.0635 N.pl3     1 <0>        -0.6109
     12 C10         5.0476   -6.1935   -0.0778 C.ar      1 <0>         0.0927
     13 C11         4.5322   -7.4836   -0.0745 C.ar      1 <0>        -0.1146
     14 C12         5.3867   -8.5678   -0.0934 C.ar      1 <0>        -0.1257
     15 C13         6.7598   -8.3694   -0.1050 C.ar      1 <0>         0.1458
     16 C14         7.2755   -7.0814   -0.1030 C.ar      1 <0>        -0.1805
     17 C15         6.4225   -5.9958   -0.0895 C.ar      1 <0>        -0.1019
     18 O1          7.6006   -9.4378   -0.1180 O.3       1 <0>        -0.5074
     19 C16         0.5604   -4.2370   -0.0250 C.2       1 <0>         0.4947
     20 O2         -0.1494   -5.2269   -0.0240 O.2       1 <0>        -0.4680
     21 O3          0.1573   -2.9498   -0.0148 O.3       1 <0>        -0.2869
     22 Br1         4.0757   -0.8660   -0.0408 Br        1 <0>        -0.0181
     23 H1         -0.9600    1.9008    0.0169 H         1 <0>         0.1386
     24 H2          1.1494    3.1666    0.0077 H         1 <0>         0.1382
     25 H3          3.3055    1.9836   -0.0191 H         1 <0>         0.1411
     26 H4         -0.9251   -0.5579    0.0075 H         1 <0>         0.1424
     27 H5          2.4278   -6.3099   -0.0540 H         1 <0>         0.1850
     28 H6          4.5911   -4.0731   -0.0615 H         1 <0>         0.4540
     29 H7          3.4634   -7.6382   -0.0610 H         1 <0>         0.1377
     30 H8          4.9862   -9.5708   -0.0953 H         1 <0>         0.1397
     31 H9          8.3445   -6.9279   -0.1117 H         1 <0>         0.1367
     32 H10         6.8241   -4.9933   -0.0883 H         1 <0>         0.1322
     33 H11         8.6893   -9.2808   -0.1272 H         1 <0>         0.4377
@<TRIPOS>BOND
     1    1    6 ar
     2    1    2 ar
     3    1   23 1
     4    2    3 ar
     5    2   24 1
     6    3    4 ar
     7    3   25 1
     8    4    5 ar
     9    4   22 1
    10    5    6 ar
    11    5    7 1
    12    6   26 1
    13    7   21 1
    14    7    8 2
    15    8    9 1
    16    9   10 2
    17    9   19 1
    18   10   11 1
    19   10   27 1
    20   11   12 1
    21   11   28 1
    22   12   17 ar
    23   12   13 ar
    24   13   14 ar
    25   13   29 1
    26   14   15 ar
    27   14   30 1
    28   15   16 ar
    29   15   18 1
    30   16   17 ar
    31   16   31 1
    32   17   32 1
    33   18   33 1
    34   19   20 2
    35   19   21 1
@<TRIPOS>MOLECULE
ZINC39358610
   46    50     0     0     0
SMALL
USER_CHARGES

@<TRIPOS>ATOM
      1 C1         -0.0167    1.3790    0.0096 C.ar      1 <0>        -0.1225
      2 C2          1.1687    2.0919    0.0021 C.ar      1 <0>        -0.1170
      3 C3          2.3774    1.4258   -0.0129 C.ar      1 <0>        -0.1130
      4 C4          2.4022    0.0327   -0.0206 C.ar      1 <0>        -0.0397
      5 C5          1.2051   -0.6804   -0.0130 C.ar      1 <0>        -0.1139
      6 C6          0.0021   -0.0041    0.0020 C.ar      1 <0>        -0.1176
      7 C7          3.6987   -0.6889   -0.0373 C.ar      1 <0>        -0.0486
      8 C8          4.8958    0.0241   -0.0395 C.ar      1 <0>        -0.1066
      9 C9          6.0988   -0.6522   -0.0546 C.ar      1 <0>        -0.0848
     10 C10         6.1176   -2.0352   -0.0680 C.ar      1 <0>        -0.0384
     11 C11         4.9322   -2.7481   -0.0663 C.ar      1 <0>        -0.0959
     12 C12         3.7235   -2.0821   -0.0450 C.ar      1 <0>        -0.1094
     13 C13         7.4343   -2.7680   -0.0849 C.3       1 <0>         0.0968
     14 H1          8.2574   -2.0535   -0.0843 H         1 <0>         0.0995
     15 C14         7.5172   -3.6430   -1.2994 C.2       1 <0>        -0.1799
     16 C15         6.8981   -3.6718   -2.4592 C.2       1 <0>         0.1773
     17 N1          7.2689   -4.7766   -3.1627 N.2       1 <0>        -0.1479
     18 N2          8.1208   -5.4784   -2.6020 N.2       1 <0>        -0.1383
     19 C16         8.4900   -4.8253   -1.3448 C.3       1 <0>         0.2164
     20 H2          9.5324   -4.5067   -1.3385 H         1 <0>         0.1554
     21 N3          8.1379   -5.6188   -0.1650 N.pl3     1 <0>        -0.6954
     22 C17         7.8816   -4.9817    1.0235 C.2       1 <0>         0.2604
     23 C18         7.5369   -3.6794    1.1291 C.2       1 <0>        -0.3123
     24 C19         7.2500   -3.0954    2.3745 C.2       1 <0>         0.4029
     25 O1          6.9465   -1.9196    2.4221 O.2       1 <0>        -0.4672
     26 C20         7.3088   -3.8895    3.6493 C.3       1 <0>        -0.1684
     27 C21         7.0157   -5.3593    3.3287 C.3       1 <0>        -0.1114
     28 C22         8.0152   -5.8332    2.2699 C.3       1 <0>        -0.1019
     29 O2          6.0155   -2.7338   -2.8930 O.3       1 <0>        -0.4261
     30 H3         -0.9603    1.9042    0.0260 H         1 <0>         0.1220
     31 H4          1.1483    3.1717    0.0077 H         1 <0>         0.1236
     32 H5          3.3023    1.9834   -0.0191 H         1 <0>         0.1247
     33 H6          1.2186   -1.7603   -0.0193 H         1 <0>         0.1231
     34 H7         -0.9264   -0.5558    0.0082 H         1 <0>         0.1230
     35 H8          4.8823    1.1040   -0.0299 H         1 <0>         0.1218
     36 H9          7.0273   -0.1005   -0.0564 H         1 <0>         0.1180
     37 H10         4.9525   -3.8278   -0.0771 H         1 <0>         0.1077
     38 H11         2.7986   -2.6396   -0.0392 H         1 <0>         0.1188
     39 H12         8.0860   -6.5856   -0.2231 H         1 <0>         0.4180
     40 H13         8.3026   -3.8025    4.0885 H         1 <0>         0.0985
     41 H14         6.5633   -3.5125    4.3494 H         1 <0>         0.0952
     42 H15         7.1232   -5.9607    4.2314 H         1 <0>         0.0852
     43 H16         6.0014   -5.4555    2.9412 H         1 <0>         0.0733
     44 H17         7.8173   -6.8755    2.0199 H         1 <0>         0.0878
     45 H18         9.0270   -5.7416    2.6649 H         1 <0>         0.1018
     46 H19         5.6532   -2.9112   -3.7718 H         1 <0>         0.4051
@<TRIPOS>BOND
     1    1    6 ar
     2    1    2 ar
     3    1   30 1
     4    2    3 ar
     5    2   31 1
     6    3    4 ar
     7    3   32 1
     8    4    5 ar
     9    4    7 1
    10    5    6 ar
    11    5   33 1
    12    6   34 1
    13    7   12 ar
    14    7    8 ar
    15    8    9 ar
    16    8   35 1
    17    9   10 ar
    18    9   36 1
    19   10   11 ar
    20   10   13 1
    21   11   12 ar
    22   11   37 1
    23   12   38 1
    24   13   14 1
    25   13   23 1
    26   13   15 1
    27   15   19 1
    28   15   16 2
    29   16   17 1
    30   16   29 1
    31   17   18 2
    32   18   19 1
    33   19   20 1
    34   19   21 1
    35   21   22 1
    36   21   39 1
    37   22   28 1
    38   22   23 2
    39   23   24 1
    40   24   25 2
    41   24   26 1
    42   26   27 1
    43   26   40 1
    44   26   41 1
    45   27   28 1
    46   27   42 1
    47   27   43 1
    48   28   44 1
    49   28   45 1
    50   29   46 1
@<TRIPOS>MOLECULE
ZINC58194156
   33    34     0     0     0
SMALL
USER_CHARGES

@<TRIPOS>ATOM
      1 C1          0.0096    1.3925   -0.2153 C.ar      1 <0>         0.0092
      2 C2          1.2172    2.0600   -0.2774 C.ar      1 <0>        -0.1932
      3 C3          2.4030    1.3682   -0.0671 C.ar      1 <0>         0.2962
      4 C4          2.3704    0.0062    0.2051 C.ar      1 <0>        -0.1228
      5 C5          1.1600   -0.6554    0.2658 C.ar      1 <0>         0.0226
      6 C6         -0.0196    0.0365    0.0558 C.ar      1 <0>        -0.1635
      7 I1         -1.8537   -0.9717    0.1489 I         1 <0>        -0.0122
      8 N1          3.6318   -0.7348    0.4292 N.pl3     1 <0>         0.0426
      9 O1          3.7521   -1.8634    0.0126 O.2       1 <0>        -0.1438
     10 O2          4.5418   -0.2116    1.0290 O.3       1 <0>        -0.1739
     11 N2          3.6261    2.0404   -0.1297 N.pl3     1 <0>        -0.7172
     12 C7          3.6544    3.4966   -0.2874 C.3       1 <0>         0.1416
     13 C8          3.5506    3.8509   -1.7721 C.3       1 <0>        -0.1355
     14 C9          3.5801    5.3718   -1.9368 C.3       1 <0>        -0.1107
     15 C10         4.8919    5.9205   -1.3720 C.3       1 <0>         0.1017
     16 C11         4.9957    5.5662    0.1128 C.3       1 <0>        -0.1481
     17 C12         4.9662    4.0453    0.2774 C.3       1 <0>        -0.1250
     18 O3          4.9195    7.3409   -1.5258 O.3       1 <0>        -0.5667
     19 H1         -0.9131    1.9308   -0.3743 H         1 <0>         0.1476
     20 H2          1.2394    3.1187   -0.4895 H         1 <0>         0.1534
     21 H3          1.1340   -1.7143    0.4770 H         1 <0>         0.1518
     22 H4          4.4566    1.5429   -0.0688 H         1 <0>         0.4130
     23 H5          2.8148    3.9367    0.2508 H         1 <0>         0.0908
     24 H6          4.3901    3.4109   -2.3103 H         1 <0>         0.0723
     25 H7          2.6160    3.4600   -2.1745 H         1 <0>         0.0762
     26 H8          3.5062    5.6242   -2.9946 H         1 <0>         0.0771
     27 H9          2.7406    5.8119   -1.3987 H         1 <0>         0.0740
     28 H10         5.7315    5.4804   -1.9101 H         1 <0>         0.0571
     29 H11         5.9303    5.9571    0.5152 H         1 <0>         0.0747
     30 H12         4.1562    6.0063    0.6509 H         1 <0>         0.0760
     31 H13         5.0401    3.7929    1.3352 H         1 <0>         0.0799
     32 H14         5.8057    3.6052   -0.2607 H         1 <0>         0.0737
     33 H15         5.7244    7.7575   -1.1886 H         1 <0>         0.3808
@<TRIPOS>BOND
     1    1    6 ar
     2    1    2 ar
     3    1   19 1
     4    2    3 ar
     5    2   20 1
     6    3    4 ar
     7    3   11 1
     8    4    5 ar
     9    4    8 1
    10    5    6 ar
    11    5   21 1
    12    6    7 1
    13    8    9 2
    14    8   10 1
    15   11   12 1
    16   11   22 1
    17   12   17 1
    18   12   13 1
    19   12   23 1
    20   13   14 1
    21   13   24 1
    22   13   25 1
    23   14   15 1
    24   14   26 1
    25   14   27 1
    26   15   16 1
    27   15   18 1
    28   15   28 1
    29   16   17 1
    30   16   29 1
    31   16   30 1
    32   17   31 1
    33   17   32 1
    34   18   33 1
@<TRIPOS>MOLECULE
ZINC05633520
   37    39     0     0     0
SMALL
USER_CHARGES

@<TRIPOS>ATOM
      1 C1         -0.0187    1.5258    0.0104 C.3       1 <0>        -0.1439
      2 C2          0.0021   -0.0041    0.0020 C.3       1 <0>        -0.0178
      3 C3          0.7421   -0.5109    1.2415 C.3       1 <0>        -0.1461
      4 C4         -1.4117   -0.5257    0.0127 C.2       1 <0>         0.1310
      5 C5         -1.9896   -1.3343   -0.9566 C.2       1 <0>        -0.2624
      6 C6         -3.2797   -1.5883   -0.5824 C.2       1 <0>         0.2753
      7 N1         -3.4964   -0.9561    0.5821 N.pl3     1 <0>        -0.4460
      8 H1         -4.3249   -0.9563    1.0866 H         1 <0>         0.4470
      9 N2         -2.3093   -0.2995    0.9425 N.2       1 <0>        -0.2560
     10 O1         -4.1185   -2.3570   -1.3206 O.3       1 <0>        -0.2310
     11 C7         -3.5781   -3.1012   -2.3068 C.2       1 <0>         0.4411
     12 C8         -2.3196   -2.9360   -2.7707 C.2       1 <0>        -0.2587
     13 C9         -1.3876   -1.8833   -2.2243 C.3       1 <0>         0.1198
     14 H2         -0.4167   -2.3286   -2.0076 H         1 <0>         0.0997
     15 C10        -1.2258   -0.7745   -3.2321 C.ar      1 <0>        -0.0555
     16 C11        -2.3320   -0.0675   -3.6651 C.ar      1 <0>        -0.0940
     17 C12        -2.1840    0.9498   -4.5890 C.ar      1 <0>        -0.0894
     18 C13        -0.9287    1.2605   -5.0803 C.ar      1 <0>        -0.0911
     19 C14         0.1778    0.5527   -4.6467 C.ar      1 <0>        -0.0868
     20 C15         0.0295   -0.4609   -3.7188 C.ar      1 <0>        -0.1064
     21 Br1        -0.7257    2.6518   -6.3448 Br        1 <0>        -0.0528
     22 C16        -1.8537   -3.7917   -3.8201 C.1       1 <0>         0.2687
     23 N3         -1.4840   -4.4705   -4.6526 N.1       1 <0>        -0.4348
     24 N4         -4.3514   -4.0845   -2.8722 N.pl3     1 <0>        -0.8303
     25 H3          1.0039    1.9031    0.0027 H         1 <0>         0.0647
     26 H4         -0.5459    1.8868   -0.8726 H         1 <0>         0.0572
     27 H5         -0.5289    1.8773    0.9072 H         1 <0>         0.0620
     28 H6          0.5123   -0.3556   -0.8948 H         1 <0>         0.0924
     29 H7          1.7647   -0.1336    1.2338 H         1 <0>         0.0654
     30 H8          0.2319   -0.1594    2.1383 H         1 <0>         0.0626
     31 H9          0.7568   -1.6008    1.2356 H         1 <0>         0.0574
     32 H10        -3.3120   -0.3103   -3.2818 H         1 <0>         0.1214
     33 H11        -3.0483    1.5019   -4.9276 H         1 <0>         0.1305
     34 H12         1.1580    0.7949   -5.0299 H         1 <0>         0.1334
     35 H13         0.8940   -1.0108   -3.3771 H         1 <0>         0.1330
     36 H14        -5.2587   -4.2274   -2.5603 H         1 <0>         0.4120
     37 H15        -3.9905   -4.6363   -3.5837 H         1 <0>         0.4284
@<TRIPOS>BOND
     1    1    2 1
     2    1   25 1
     3    1   26 1
     4    1   27 1
     5    2    3 1
     6    2    4 1
     7    2   28 1
     8    3   29 1
     9    3   30 1
    10    3   31 1
    11    4    9 2
    12    4    5 1
    13    5   13 1
    14    5    6 2
    15    6    7 1
    16    6   10 1
    17    7    8 1
    18    7    9 1
    19   10   11 1
    20   11   12 2
    21   11   24 1
    22   12   13 1
    23   12   22 1
    24   13   14 1
    25   13   15 1
    26   15   20 ar
    27   15   16 ar
    28   16   17 ar
    29   16   32 1
    30   17   18 ar
    31   17   33 1
    32   18   19 ar
    33   18   21 1
    34   19   20 ar
    35   19   34 1
    36   20   35 1
    37   22   23 3
    38   24   36 1
    39   24   37 1
@<TRIPOS>MOLECULE
ZINC12324495
   46    50     0     0     0
SMALL
USER_CHARGES
(5R)-8,8-dimethyl-5-(4-quinolyl)-5,7,9,10-tetrahydro-4H-[1,2,5]oxadiazolo[3,4-b][1,4]benzodiazepin-6-one
@<TRIPOS>ATOM
      1 C1          5.2090    2.3835    0.6242 C.3       1 <0>        -0.1528
      2 C2          4.5529    2.9026    1.9052 C.3       1 <0>        -0.0569
      3 C3          3.0901    3.2526    1.6358 C.3       1 <0>        -0.0993
      4 C4          2.3514    2.0234    1.1312 C.2       1 <0>         0.2571
      5 C5          2.6562    0.8005    1.5859 C.2       1 <0>        -0.2785
      6 C6          2.0323   -0.5444    1.2727 C.3       1 <0>         0.2720
      7 H1          2.8346   -1.2617    1.0991 H         1 <0>         0.1257
      8 N1          1.1444   -0.5668    0.1239 N.pl3     1 <0>        -0.7156
      9 C7          0.0225    0.2605    0.1145 C.2       1 <0>         0.3152
     10 C8          0.1417    1.7085    0.2090 C.2       1 <0>         0.2965
     11 N2         -1.0427    2.2262    0.2574 N.2       1 <0>        -0.2723
     12 O1         -1.9750    1.1574    0.1618 O.3       1 <0>         0.0349
     13 N3         -1.2343   -0.0517    0.0660 N.2       1 <0>        -0.2774
     14 N4          1.3962    2.3026    0.1977 N.pl3     1 <0>        -0.6478
     15 C9          1.2542   -0.9979    2.4809 C.ar      1 <0>        -0.0295
     16 C10         0.8099   -0.0983    3.4081 C.ar      1 <0>        -0.1671
     17 C11         0.0925   -0.5402    4.5173 C.ar      1 <0>         0.1333
     18 N5         -0.1754   -1.8099    4.7046 N.ar      1 <0>        -0.4671
     19 C12         0.2301   -2.7410    3.8358 C.ar      1 <0>         0.1277
     20 C13         0.9600   -2.3593    2.6826 C.ar      1 <0>        -0.0779
     21 C14         1.3782   -3.3410    1.7696 C.ar      1 <0>        -0.0952
     22 C15         1.0733   -4.6476    2.0001 C.ar      1 <0>        -0.1112
     23 C16         0.3509   -5.0247    3.1305 C.ar      1 <0>        -0.1003
     24 C17        -0.0601   -4.1013    4.0417 C.ar      1 <0>        -0.0909
     25 C18         3.7293    0.6615    2.5116 C.2       1 <0>         0.3961
     26 O2          3.9773   -0.4468    2.9440 O.2       1 <0>        -0.4589
     27 C19         4.5664    1.8084    2.9792 C.3       1 <0>        -0.1496
     28 C20         5.2998    4.1384    2.4109 C.3       1 <0>        -0.1430
     29 H2          5.1596    3.1525   -0.1467 H         1 <0>         0.0638
     30 H3          6.2515    2.1361    0.8244 H         1 <0>         0.0650
     31 H4          4.6832    1.4920    0.2823 H         1 <0>         0.0607
     32 H5          3.0385    4.0404    0.8842 H         1 <0>         0.0946
     33 H6          2.6253    3.6017    2.5578 H         1 <0>         0.1046
     34 H7          1.3297   -1.1508   -0.6281 H         1 <0>         0.4215
     35 H8          1.6023    2.9417   -0.5023 H         1 <0>         0.4278
     36 H9          1.0149    0.9544    3.2814 H         1 <0>         0.1255
     37 H10        -0.2525    0.1823    5.2421 H         1 <0>         0.1588
     38 H11         1.9380   -3.0610    0.8895 H         1 <0>         0.1248
     39 H12         1.3953   -5.4019    1.2974 H         1 <0>         0.1290
     40 H13         0.1216   -6.0679    3.2909 H         1 <0>         0.1316
     41 H14        -0.6191   -4.4105    4.9125 H         1 <0>         0.1366
     42 H15         5.5062    1.5027    3.1318 H         1 <0>         0.0925
     43 H16         4.1571    2.2041    3.9087 H         1 <0>         0.1048
     44 H17         4.8383    4.4894    3.3339 H         1 <0>         0.0618
     45 H18         6.3418    3.8808    2.6007 H         1 <0>         0.0655
     46 H19         5.2513    4.9254    1.6583 H         1 <0>         0.0638
@<TRIPOS>BOND
     1    1    2 1
     2    1   29 1
     3    1   30 1
     4    1   31 1
     5    2   27 1
     6    2    3 1
     7    2   28 1
     8    3    4 1
     9    3   32 1
    10    3   33 1
    11    4   14 1
    12    4    5 2
    13    5    6 1
    14    5   25 1
    15    6    7 1
    16    6    8 1
    17    6   15 1
    18    8    9 1
    19    8   34 1
    20    9   13 2
    21    9   10 1
    22   10   11 2
    23   10   14 1
    24   11   12 1
    25   12   13 1
    26   14   35 1
    27   15   20 ar
    28   15   16 ar
    29   16   17 ar
    30   16   36 1
    31   17   18 ar
    32   17   37 1
    33   18   19 ar
    34   19   24 ar
    35   19   20 ar
    36   20   21 ar
    37   21   22 ar
    38   21   38 1
    39   22   23 ar
    40   22   39 1
    41   23   24 ar
    42   23   40 1
    43   24   41 1
    44   25   26 2
    45   25   27 1
    46   27   42 1
    47   27   43 1
    48   28   44 1
    49   28   45 1
    50   28   46 1
@<TRIPOS>MOLECULE
ZINC35577261
   41    44     0     0     0
SMALL
USER_CHARGES

@<TRIPOS>ATOM
      1 C1         -1.0478    1.1805   -0.1003 C.3       1 <0>         0.0914
      2 N1         -0.4677   -0.1642   -0.0587 N.pl3     1 <0>        -0.3554
      3 C2         -0.0314   -0.8497   -1.1296 C.2       1 <0>         0.4453
      4 C3          0.4438   -2.0748   -0.6773 C.ar      1 <0>        -0.3885
      5 C4          1.0186   -3.2201   -1.2724 C.ar      1 <0>         0.3717
      6 N2          1.3583   -4.2336   -0.4862 N.ar      1 <0>        -0.5879
      7 C5          1.1743   -4.2003    0.8303 C.ar      1 <0>         0.6180
      8 N3          0.6464   -3.1749    1.4663 N.ar      1 <0>        -0.5815
      9 C6          0.2575   -2.0793    0.7850 C.ar      1 <0>         0.3626
     10 N4         -0.2802   -0.9226    1.1024 N.2       1 <0>        -0.3139
     11 N5          1.5580   -5.3029    1.5723 N.pl3     1 <0>        -0.5826
     12 C7          2.1594   -6.4796    0.9249 C.3       1 <0>         0.0928
     13 C8          3.4507   -6.8346    1.6709 C.3       1 <0>         0.0467
     14 O1          3.1701   -6.9525    3.0677 O.3       1 <0>        -0.3806
     15 C9          2.7065   -5.7445    3.6756 C.3       1 <0>         0.0471
     16 C10         1.3823   -5.3314    3.0330 C.3       1 <0>         0.0922
     17 C11         1.2358   -3.2879   -2.7350 C.ar      1 <0>        -0.0558
     18 C12         1.7975   -2.2038   -3.4105 C.ar      1 <0>        -0.0926
     19 C13         1.9975   -2.2724   -4.7734 C.ar      1 <0>        -0.1120
     20 C14         1.6421   -3.4145   -5.4715 C.ar      1 <0>        -0.0198
     21 C15         1.0843   -4.4935   -4.8062 C.ar      1 <0>        -0.1091
     22 C16         0.8849   -4.4382   -3.4425 C.ar      1 <0>        -0.0572
     23 Cl1         1.8962   -3.4937   -7.1869 Cl        1 <0>        -0.0592
     24 N6         -0.0521   -0.4153   -2.4419 N.pl3     1 <0>        -0.8369
     25 H1         -0.2554    1.9214    0.0049 H         1 <0>         0.0834
     26 H2         -1.5580    1.3268   -1.0523 H         1 <0>         0.0882
     27 H3         -1.7616    1.2936    0.7157 H         1 <0>         0.1032
     28 H4          1.4657   -7.3191    0.9718 H         1 <0>         0.0744
     29 H5          2.3880   -6.2493   -0.1157 H         1 <0>         0.1082
     30 H6          3.8389   -7.7817    1.2963 H         1 <0>         0.1075
     31 H7          4.1900   -6.0493    1.5131 H         1 <0>         0.0549
     32 H8          2.5594   -5.9074    4.7433 H         1 <0>         0.1085
     33 H9          3.4431   -4.9552    3.5251 H         1 <0>         0.0550
     34 H10         1.0966   -4.3411    3.3877 H         1 <0>         0.1113
     35 H11         0.6090   -6.0533    3.2958 H         1 <0>         0.0743
     36 H12         2.0747   -1.3125   -2.8672 H         1 <0>         0.1410
     37 H13         2.4318   -1.4338   -5.2973 H         1 <0>         0.1424
     38 H14         0.8086   -5.3815   -5.3556 H         1 <0>         0.1424
     39 H15         0.4540   -5.2819   -2.9241 H         1 <0>         0.1421
     40 H16        -0.1458    0.5299   -2.6384 H         1 <0>         0.4074
     41 H17         0.0272   -1.0557   -3.1661 H         1 <0>         0.4212
@<TRIPOS>BOND
     1    1    2 1
     2    1   25 1
     3    1   26 1
     4    1   27 1
     5    2   10 1
     6    2    3 1
     7    3    4 2
     8    3   24 1
     9    4    9 ar
    10    4    5 ar
    11    5    6 ar
    12    5   17 1
    13    6    7 ar
    14    7    8 ar
    15    7   11 1
    16    8    9 ar
    17    9   10 2
    18   11   16 1
    19   11   12 1
    20   12   13 1
    21   12   28 1
    22   12   29 1
    23   13   14 1
    24   13   30 1
    25   13   31 1
    26   14   15 1
    27   15   16 1
    28   15   32 1
    29   15   33 1
    30   16   34 1
    31   16   35 1
    32   17   22 ar
    33   17   18 ar
    34   18   19 ar
    35   18   36 1
    36   19   20 ar
    37   19   37 1
    38   20   21 ar
    39   20   23 1
    40   21   22 ar
    41   21   38 1
    42   22   39 1
    43   24   40 1
    44   24   41 1
@<TRIPOS>MOLECULE
ZINC20745325
   45    48     0     0     0
SMALL
USER_CHARGES

@<TRIPOS>ATOM
      1 C1         -0.0178    1.4608    0.0101 C.3       1 <0>         0.0559
      2 N1          0.0021   -0.0041    0.0020 N.am      1 <0>        -0.5393
      3 C2         -1.1797   -0.7044    0.0039 C.2       1 <0>         0.4647
      4 C3         -1.1377   -2.0691   -0.0037 C.2       1 <0>        -0.3347
      5 C4          0.0948   -2.7316   -0.0128 C.2       1 <0>         0.5796
      6 O1          0.1415   -3.9496   -0.0201 O.2       1 <0>        -0.4969
      7 N2          1.2317   -2.0030   -0.0139 N.am      1 <0>        -0.5562
      8 C5          1.1782   -0.6585   -0.0127 C.2       1 <0>         0.7074
      9 O2          2.2138   -0.0215   -0.0192 O.2       1 <0>        -0.5248
     10 C6          2.5308   -2.6802   -0.0228 C.3       1 <0>         0.0817
     11 C7         -2.4429   -2.8282   -0.0016 C.3       1 <0>         0.2632
     12 H1         -2.4640   -3.4652   -0.8859 H         1 <0>         0.0989
     13 N3         -3.6767   -2.0211    0.0087 N.am      1 <0>        -0.7054
     14 C8         -3.5668   -0.6785    0.0155 C.2       1 <0>         0.7189
     15 O3         -4.5825   -0.0108    0.0240 O.2       1 <0>        -0.5507
     16 N4         -2.3849   -0.0489    0.0137 N.am      1 <0>        -0.6500
     17 C9         -2.4608   -3.7214    1.2121 C.ar      1 <0>        -0.1078
     18 C10        -2.7879   -3.1963    2.4493 C.ar      1 <0>        -0.0957
     19 C11        -2.8058   -4.0097    3.5641 C.ar      1 <0>        -0.1160
     20 C12        -2.4936   -5.3621    3.4417 C.ar      1 <0>        -0.0368
     21 C13        -2.1649   -5.8857    2.1930 C.ar      1 <0>        -0.1122
     22 C14        -2.1556   -5.0644    1.0839 C.ar      1 <0>        -0.0673
     23 C15        -2.5107   -6.2414    4.6369 C.ar      1 <0>        -0.0475
     24 C16        -2.8447   -5.7189    5.8847 C.ar      1 <0>        -0.1110
     25 C17        -2.8595   -6.5414    6.9929 C.ar      1 <0>        -0.1181
     26 C18        -2.5432   -7.8820    6.8666 C.ar      1 <0>        -0.1184
     27 C19        -2.2105   -8.4059    5.6305 C.ar      1 <0>        -0.1175
     28 C20        -2.1986   -7.5938    4.5145 C.ar      1 <0>        -0.1095
     29 H2          1.0048    1.8381    0.0023 H         1 <0>         0.1202
     30 H3         -0.5450    1.8219   -0.8730 H         1 <0>         0.0870
     31 H4         -0.5280    1.8123    0.9069 H         1 <0>         0.0868
     32 H5          2.8487   -2.8428   -1.0526 H         1 <0>         0.0764
     33 H6          3.2666   -2.0616    0.4911 H         1 <0>         0.0923
     34 H7          2.4437   -3.6399    0.4865 H         1 <0>         0.0970
     35 H8         -4.5481   -2.4473    0.0103 H         1 <0>         0.4389
     36 H9         -2.3807    0.9211    0.0189 H         1 <0>         0.4297
     37 H10        -3.0293   -2.1478    2.5431 H         1 <0>         0.1137
     38 H11        -3.0610   -3.5986    4.5297 H         1 <0>         0.1238
     39 H12        -1.9217   -6.9332    2.0926 H         1 <0>         0.1267
     40 H13        -1.9055   -5.4702    0.1148 H         1 <0>         0.1307
     41 H14        -3.0911   -4.6721    5.9845 H         1 <0>         0.1241
     42 H15        -3.1181   -6.1374    7.9606 H         1 <0>         0.1242
     43 H16        -2.5556   -8.5220    7.7365 H         1 <0>         0.1231
     44 H17        -1.9640   -9.4533    5.5375 H         1 <0>         0.1249
     45 H18        -1.9430   -8.0048    3.5490 H         1 <0>         0.1261
@<TRIPOS>BOND
     1    1    2 1
     2    1   29 1
     3    1   30 1
     4    1   31 1
     5    2    8 am
     6    2    3 1
     7    3   16 1
     8    3    4 2
     9    4    5 1
    10    4   11 1
    11    5    6 2
    12    5    7 am
    13    7    8 am
    14    7   10 1
    15    8    9 2
    16   10   32 1
    17   10   33 1
    18   10   34 1
    19   11   12 1
    20   11   13 1
    21   11   17 1
    22   13   14 am
    23   13   35 1
    24   14   15 2
    25   14   16 am
    26   16   36 1
    27   17   22 ar
    28   17   18 ar
    29   18   19 ar
    30   18   37 1
    31   19   20 ar
    32   19   38 1
    33   20   21 ar
    34   20   23 1
    35   21   22 ar
    36   21   39 1
    37   22   40 1
    38   23   28 ar
    39   23   24 ar
    40   24   25 ar
    41   24   41 1
    42   25   26 ar
    43   25   42 1
    44   26   27 ar
    45   26   43 1
    46   27   28 ar
    47   27   44 1
    48   28   45 1
@<TRIPOS>MOLECULE
ZINC63221982
   45    49     0     0     0
SMALL
USER_CHARGES

@<TRIPOS>ATOM
      1 C1         -0.0167    1.3794    0.0096 C.ar      1 <0>        -0.1168
      2 C2          1.1683    2.0936    0.0021 C.ar      1 <0>        -0.1164
      3 C3          2.3774    1.4295   -0.0134 C.ar      1 <0>        -0.1066
      4 C4          2.4035    0.0338   -0.0211 C.ar      1 <0>        -0.0095
      5 C5          1.2042   -0.6806   -0.0130 C.ar      1 <0>        -0.0999
      6 C6          0.0021   -0.0041    0.0020 C.ar      1 <0>        -0.1140
      7 C7          3.6951   -0.6843   -0.0382 C.2       1 <0>         0.0266
      8 C8          3.8573   -2.0340   -0.0525 C.2       1 <0>        -0.1766
      9 C9          5.2456   -2.2759   -0.0658 C.2       1 <0>        -0.1606
     10 C10         5.8556   -1.0745   -0.0590 C.2       1 <0>         0.0200
     11 O1          4.9158   -0.1152   -0.0482 O.3       1 <0>        -0.1667
     12 C11         7.3450   -0.8453   -0.0685 C.3       1 <0>         0.0848
     13 H1          7.8579   -1.8070   -0.0819 H         1 <0>         0.1160
     14 C12         7.7469   -0.0744    1.1906 C.3       1 <0>        -0.1312
     15 H2          7.0654    0.7633    1.3384 H         1 <0>         0.1640
     16 C13         9.1483    0.4459    0.9764 C.2       1 <0>         0.4849
     17 N1         10.1236    0.1671    1.7844 N.2       1 <0>        -0.5633
     18 C14         9.9691   -0.6228    2.8564 C.2       1 <0>         0.6860
     19 O2         10.9202   -0.8229    3.5883 O.2       1 <0>        -0.4734
     20 N2          8.7903   -1.1981    3.1423 N.am      1 <0>        -0.6895
     21 C15         7.6965   -0.9797    2.3868 C.2       1 <0>         0.5261
     22 O3          6.6519   -1.5239    2.6742 O.2       1 <0>        -0.4550
     23 N3          9.3443    1.2226   -0.1325 N.pl3     1 <0>        -0.6270
     24 C16         8.6770    0.8867   -1.2896 C.2       1 <0>         0.2372
     25 C17         7.7223   -0.0601   -1.3033 C.2       1 <0>        -0.2861
     26 C18         7.0277   -0.3629   -2.4924 C.2       1 <0>         0.3993
     27 O4          6.1748   -1.2280   -2.4779 O.2       1 <0>        -0.4447
     28 C19         7.3183    0.3607   -3.7774 C.3       1 <0>        -0.1676
     29 C20         7.8341    1.7665   -3.4524 C.3       1 <0>        -0.1126
     30 C21         9.0590    1.6253   -2.5507 C.3       1 <0>        -0.0981
     31 H3         -0.9605    1.9041    0.0260 H         1 <0>         0.1252
     32 H4          1.1467    3.1733    0.0081 H         1 <0>         0.1260
     33 H5          3.3017    1.9881   -0.0199 H         1 <0>         0.1244
     34 H6          1.2175   -1.7605   -0.0192 H         1 <0>         0.1283
     35 H7         -0.9265   -0.5556    0.0082 H         1 <0>         0.1288
     36 H8          3.0737   -2.7772   -0.0535 H         1 <0>         0.1480
     37 H9          5.7292   -3.2415   -0.0789 H         1 <0>         0.1433
     38 H10         8.7231   -1.7841    3.9123 H         1 <0>         0.4278
     39 H11         9.9373    1.9897   -0.1046 H         1 <0>         0.4357
     40 H12         8.0760   -0.1848   -4.3399 H         1 <0>         0.1040
     41 H13         6.4057    0.4346   -4.3688 H         1 <0>         0.1003
     42 H14         8.1146    2.2768   -4.3738 H         1 <0>         0.0920
     43 H15         7.0568    2.3335   -2.9400 H         1 <0>         0.0788
     44 H16         9.4270    2.6182   -2.2924 H         1 <0>         0.0976
     45 H17         9.8412    1.0731   -3.0718 H         1 <0>         0.1105
@<TRIPOS>BOND
     1    1    6 ar
     2    1    2 ar
     3    1   31 1
     4    2    3 ar
     5    2   32 1
     6    3    4 ar
     7    3   33 1
     8    4    5 ar
     9    4    7 1
    10    5    6 ar
    11    5   34 1
    12    6   35 1
    13    7   11 1
    14    7    8 2
    15    8    9 1
    16    8   36 1
    17    9   10 2
    18    9   37 1
    19   10   11 1
    20   10   12 1
    21   12   13 1
    22   12   25 1
    23   12   14 1
    24   14   15 1
    25   14   21 1
    26   14   16 1
    27   16   17 2
    28   16   23 1
    29   17   18 1
    30   18   19 2
    31   18   20 am
    32   20   21 am
    33   20   38 1
    34   21   22 2
    35   23   24 1
    36   23   39 1
    37   24   30 1
    38   24   25 2
    39   25   26 1
    40   26   27 2
    41   26   28 1
    42   28   29 1
    43   28   40 1
    44   28   41 1
    45   29   30 1
    46   29   42 1
    47   29   43 1
    48   30   44 1
    49   30   45 1
@<TRIPOS>MOLECULE
ZINC66927359
   45    48     0     0     0
SMALL
USER_CHARGES

@<TRIPOS>ATOM
      1 C1         -0.1479    0.6967   -1.0378 C.ar      1 <0>        -0.0648
      2 C2          1.1501    1.1412   -0.8982 C.ar      1 <0>        -0.1121
      3 C3          2.1711    0.5638   -1.6411 C.ar      1 <0>         0.0729
      4 C4          1.8878   -0.4690   -2.5302 C.ar      1 <0>         0.0546
      5 C5          0.5870   -0.9179   -2.6758 C.ar      1 <0>        -0.0876
      6 C6         -0.4386   -0.3366   -1.9291 C.ar      1 <0>        -0.0126
      7 C7         -1.8294   -0.8146   -2.0818 C.2       1 <0>         0.1096
      8 N1         -2.9258   -0.3951   -1.4763 N.2       1 <0>        -0.4471
      9 C8         -4.0772   -0.9810   -1.7770 C.2       1 <0>        -0.0042
     10 C9         -4.0880   -1.9937   -2.6988 C.2       1 <0>        -0.1992
     11 S1         -2.4669   -2.1036   -3.1378 S.3       1 <0>         0.1804
     12 C10        -5.3268   -0.5487   -1.1281 C.2       1 <0>         0.5869
     13 O1         -6.2955   -1.2842   -1.1231 O.2       1 <0>        -0.5012
     14 N2         -5.3969    0.6619   -0.5398 N.am      1 <0>        -0.5879
     15 C11        -4.3020    1.6305   -0.6877 C.3       1 <0>         0.0758
     16 C12        -3.8536    2.0841    0.7051 C.3       1 <0>        -0.1310
     17 C13        -5.0629    2.6156    1.4780 C.3       1 <0>        -0.1196
     18 C14        -6.0959    1.4986    1.6432 C.3       1 <0>        -0.1216
     19 C15        -6.5722    1.0404    0.2564 C.3       1 <0>         0.1286
     20 H1         -7.1020    1.8544   -0.2384 H         1 <0>         0.0883
     21 C16        -7.4879   -0.1476    0.4016 C.2       1 <0>         0.5326
     22 O2         -7.0618   -1.1904    0.8510 O.2       1 <0>        -0.5183
     23 N3         -8.7805   -0.0513    0.0321 N.am      1 <0>        -0.8547
     24 O3          2.8787   -1.0509   -3.2602 O.3       1 <0>        -0.3038
     25 C17         4.1102   -0.3283   -3.3648 C.3       1 <0>         0.0198
     26 C18         4.4939    0.1723   -1.9657 C.3       1 <0>         0.0184
     27 O4          3.4440    1.0211   -1.4898 O.3       1 <0>        -0.3026
     28 H2         -0.9382    1.1452   -0.4542 H         1 <0>         0.1460
     29 H3          1.3732    1.9418   -0.2085 H         1 <0>         0.1454
     30 H4          0.3656   -1.7175   -3.3672 H         1 <0>         0.1404
     31 H5         -4.9261   -2.5731   -3.0568 H         1 <0>         0.2089
     32 H6         -3.4659    1.1606   -1.2057 H         1 <0>         0.1449
     33 H7         -4.6504    2.4916   -1.2579 H         1 <0>         0.0590
     34 H8         -3.4217    1.2392    1.2414 H         1 <0>         0.0704
     35 H9         -3.1082    2.8735    0.6082 H         1 <0>         0.0762
     36 H10        -4.7422    2.9618    2.4606 H         1 <0>         0.0713
     37 H11        -5.5091    3.4446    0.9288 H         1 <0>         0.0654
     38 H12        -5.6429    0.6591    2.1707 H         1 <0>         0.0791
     39 H13        -6.9465    1.8712    2.2139 H         1 <0>         0.0782
     40 H14        -9.1213    0.7827   -0.3273 H         1 <0>         0.3964
     41 H15        -9.3699   -0.8160    0.1256 H         1 <0>         0.4030
     42 H16         4.8910   -0.9859   -3.7469 H         1 <0>         0.1265
     43 H17         3.9824    0.5205   -4.0367 H         1 <0>         0.0811
     44 H18         4.6145   -0.6761   -1.2921 H         1 <0>         0.0818
     45 H19         5.4258    0.7351   -2.0194 H         1 <0>         0.1265
@<TRIPOS>BOND
     1    1    6 ar
     2    1    2 ar
     3    1   28 1
     4    2    3 ar
     5    2   29 1
     6    3   27 1
     7    3    4 ar
     8    4    5 ar
     9    4   24 1
    10    5    6 ar
    11    5   30 1
    12    6    7 1
    13    7   11 1
    14    7    8 2
    15    8    9 1
    16    9   10 2
    17    9   12 1
    18   10   11 1
    19   10   31 1
    20   12   13 2
    21   12   14 am
    22   14   19 1
    23   14   15 1
    24   15   16 1
    25   15   32 1
    26   15   33 1
    27   16   17 1
    28   16   34 1
    29   16   35 1
    30   17   18 1
    31   17   36 1
    32   17   37 1
    33   18   19 1
    34   18   38 1
    35   18   39 1
    36   19   20 1
    37   19   21 1
    38   21   22 2
    39   21   23 am
    40   23   40 1
    41   23   41 1
    42   24   25 1
    43   25   26 1
    44   25   42 1
    45   25   43 1
    46   26   27 1
    47   26   44 1
    48   26   45 1
@<TRIPOS>MOLECULE
ZINC00989055
   44    47     0     0     0
SMALL
USER_CHARGES
3-amino-5-(4-chlorophenyl)-7-methyl-9-(p-tolyl)-2-oxa-8,9-diazabicyclo[4.3.0]nona-3,7,10-triene-4-carbonitrile
@<TRIPOS>ATOM
      1 C1          1.2249   -2.1874   -0.0214 C.3       1 <0>        -0.1185
      2 C2          1.2080   -0.6805   -0.0131 C.ar      1 <0>        -0.0795
      3 C3          0.0021   -0.0041    0.0020 C.ar      1 <0>        -0.1026
      4 C4         -0.0167    1.3770    0.0096 C.ar      1 <0>        -0.0970
      5 C5          1.1770    2.0861    0.0020 C.ar      1 <0>         0.1331
      6 C6          2.3863    1.4040   -0.0127 C.ar      1 <0>        -0.1153
      7 C7          2.3985    0.0229   -0.0203 C.ar      1 <0>        -0.1001
      8 N1          1.1613    3.4876    0.0097 N.pl3     1 <0>        -0.2972
      9 C8          2.0487    4.2910    0.6357 C.2       1 <0>         0.2747
     10 C9          1.6775    5.5836    0.3898 C.2       1 <0>        -0.2565
     11 C10         0.5322    5.5612   -0.3951 C.2       1 <0>         0.1253
     12 N2          0.2170    4.3086   -0.6267 N.2       1 <0>        -0.2605
     13 C11        -0.2197    6.7679   -0.8946 C.3       1 <0>        -0.0815
     14 C12         2.4430    6.7651    0.9275 C.3       1 <0>         0.1226
     15 H1          1.7530    7.4702    1.3910 H         1 <0>         0.1015
     16 C13         3.4248    6.2617    1.9559 C.2       1 <0>        -0.2595
     17 C14         3.7039    4.9484    2.1104 C.2       1 <0>         0.4395
     18 O1          3.1385    3.9694    1.3752 O.3       1 <0>        -0.2261
     19 N3          4.6158    4.5901    3.0719 N.pl3     1 <0>        -0.8295
     20 C15         4.0857    7.2108    2.8004 C.1       1 <0>         0.2696
     21 N4          4.6099    7.9636    3.4704 N.1       1 <0>        -0.4349
     22 C16         3.1853    7.4435   -0.1949 C.ar      1 <0>        -0.0682
     23 C17         4.1325    6.7438   -0.9190 C.ar      1 <0>        -0.0869
     24 C18         4.8096    7.3638   -1.9522 C.ar      1 <0>        -0.1088
     25 C19         4.5474    8.6882   -2.2544 C.ar      1 <0>        -0.0350
     26 C20         3.6033    9.3896   -1.5257 C.ar      1 <0>        -0.1071
     27 C21         2.9228    8.7668   -0.4964 C.ar      1 <0>        -0.0998
     28 Cl1         5.4029    9.4698   -3.5470 Cl        1 <0>        -0.0713
     29 H2          1.2192   -2.5452   -1.0510 H         1 <0>         0.0756
     30 H3          2.1238   -2.5434    0.4820 H         1 <0>         0.0699
     31 H4          0.3440   -2.5635    0.4989 H         1 <0>         0.0705
     32 H5         -0.9261   -0.5562    0.0083 H         1 <0>         0.1352
     33 H6         -0.9589    1.9047    0.0170 H         1 <0>         0.1371
     34 H7          3.3164    1.9529   -0.0187 H         1 <0>         0.1308
     35 H8          3.3389   -0.5082   -0.0314 H         1 <0>         0.1345
     36 H9         -0.9818    7.0478   -0.1672 H         1 <0>         0.0871
     37 H10         0.4741    7.5974   -1.0314 H         1 <0>         0.0856
     38 H11        -0.6954    6.5313   -1.8464 H         1 <0>         0.0809
     39 H12         5.0391    5.2718    3.6169 H         1 <0>         0.4284
     40 H13         4.8367    3.6553    3.2064 H         1 <0>         0.4120
     41 H14         4.3403    5.7112   -0.6802 H         1 <0>         0.1212
     42 H15         5.5464    6.8158   -2.5207 H         1 <0>         0.1315
     43 H16         3.3979   10.4233   -1.7613 H         1 <0>         0.1346
     44 H17         2.1861    9.3143    0.0728 H         1 <0>         0.1344
@<TRIPOS>BOND
     1    1    2 1
     2    1   29 1
     3    1   30 1
     4    1   31 1
     5    2    7 ar
     6    2    3 ar
     7    3    4 ar
     8    3   32 1
     9    4    5 ar
    10    4   33 1
    11    5    6 ar
    12    5    8 1
    13    6    7 ar
    14    6   34 1
    15    7   35 1
    16    8   12 1
    17    8    9 1
    18    9   18 1
    19    9   10 2
    20   10   11 1
    21   10   14 1
    22   11   12 2
    23   11   13 1
    24   13   36 1
    25   13   37 1
    26   13   38 1
    27   14   15 1
    28   14   16 1
    29   14   22 1
    30   16   17 2
    31   16   20 1
    32   17   18 1
    33   17   19 1
    34   19   39 1
    35   19   40 1
    36   20   21 3
    37   22   27 ar
    38   22   23 ar
    39   23   24 ar
    40   23   41 1
    41   24   25 ar
    42   24   42 1
    43   25   26 ar
    44   25   28 1
    45   26   27 ar
    46   26   43 1
    47   27   44 1
@<TRIPOS>MOLECULE
ZINC19461100
   50    54     0     0     0
SMALL
USER_CHARGES
(10R,10aS)-10-(3,4-dihydroxyphenyl)-7,7-dimethyl-6,8,10,10a-tetrahydroindeno[3,2-b]quinoline-9,11-dione
@<TRIPOS>ATOM
      1 C1         -0.0187    1.5258    0.0104 C.3       1 <0>        -0.1428
      2 C2          0.0021   -0.0041    0.0020 C.3       1 <0>        -0.0569
      3 C3          0.7100   -0.5012   -1.2600 C.3       1 <0>        -0.0729
      4 C4          0.6889   -2.0105   -1.2917 C.2       1 <0>         0.1584
      5 C5         -0.3358   -2.7016   -0.7280 C.2       1 <0>        -0.2401
      6 C6         -0.3658   -4.2179   -0.7754 C.3       1 <0>         0.0223
      7 H1          0.1753   -4.6430    0.0828 H         1 <0>         0.0937
      8 C7          0.2680   -4.6503   -2.0973 C.3       1 <0>        -0.1653
      9 H2         -0.4512   -4.4603   -2.9077 H         1 <0>         0.1453
     10 C8          1.5862   -3.9017   -2.2198 C.2       1 <0>         0.2554
     11 N1          1.7158   -2.6426   -1.8945 N.2       1 <0>        -0.4616
     12 C9          2.5823   -4.8711   -2.6356 C.ar      1 <0>        -0.0450
     13 C10         3.9001   -4.6782   -3.0699 C.ar      1 <0>        -0.0594
     14 C11         4.6438   -5.8120   -3.3616 C.ar      1 <0>        -0.0949
     15 C12         4.1252   -7.0856   -3.2250 C.ar      1 <0>        -0.1044
     16 C13         2.8228   -7.3089   -2.7997 C.ar      1 <0>        -0.0486
     17 C14         2.0434   -6.1835   -2.5142 C.ar      1 <0>        -0.1561
     18 C15         0.6395   -6.1102   -2.1069 C.2       1 <0>         0.4165
     19 O1         -0.0839   -7.0432   -1.8305 O.2       1 <0>        -0.4029
     20 C16        -1.7908   -4.7037   -0.7082 C.ar      1 <0>        -0.0377
     21 C17        -2.6950   -4.3257   -1.6834 C.ar      1 <0>        -0.1148
     22 C18        -4.0033   -4.7687   -1.6263 C.ar      1 <0>        -0.1195
     23 C19        -4.4108   -5.5937   -0.5903 C.ar      1 <0>         0.1223
     24 C20        -3.5005   -5.9745    0.3909 C.ar      1 <0>         0.0735
     25 C21        -2.1895   -5.5309    0.3251 C.ar      1 <0>        -0.1486
     26 O2         -3.8957   -6.7842    1.4097 O.3       1 <0>        -0.5206
     27 O3         -5.6975   -6.0300   -0.5324 O.3       1 <0>        -0.5107
     28 C22        -1.3983   -2.0394   -0.0895 C.2       1 <0>         0.3906
     29 O4         -2.3031   -2.6898    0.3945 O.2       1 <0>        -0.4328
     30 C23        -1.4339   -0.5379    0.0040 C.3       1 <0>        -0.1589
     31 C24         0.7415   -0.5145    1.2404 C.3       1 <0>        -0.1505
     32 H3          1.0133    1.9065    0.0089 H         1 <0>         0.0633
     33 H4         -0.5391    1.8805    0.9123 H         1 <0>         0.0633
     34 H5         -0.5453    1.8902   -0.8840 H         1 <0>         0.0609
     35 H6          0.1931   -0.1098   -2.1486 H         1 <0>         0.0960
     36 H7          1.7525   -0.1503   -1.2580 H         1 <0>         0.0988
     37 H8          4.3192   -3.6883   -3.1735 H         1 <0>         0.1489
     38 H9          5.6605   -5.6957   -3.7068 H         1 <0>         0.1368
     39 H10         4.7526   -7.9336   -3.4566 H         1 <0>         0.1363
     40 H11         2.4285   -8.3088   -2.6939 H         1 <0>         0.1473
     41 H12        -2.3786   -3.6827   -2.4914 H         1 <0>         0.1153
     42 H13        -4.7076   -4.4719   -2.3893 H         1 <0>         0.1299
     43 H14        -1.4801   -5.8280    1.0834 H         1 <0>         0.1183
     44 H15        -3.1752   -7.0845    2.1847 H         1 <0>         0.4363
     45 H16        -6.0197   -6.6849    0.2906 H         1 <0>         0.4352
     46 H17        -1.9360   -0.2359    0.9350 H         1 <0>         0.0986
     47 H18        -1.9797   -0.1254   -0.8574 H         1 <0>         0.1018
     48 H19         0.7550   -1.6144    1.2320 H         1 <0>         0.0543
     49 H20         0.2271   -0.1610    2.1462 H         1 <0>         0.0620
     50 H21         1.7739   -0.1350    1.2333 H         1 <0>         0.0637
@<TRIPOS>BOND
     1    1    2 1
     2    1   32 1
     3    1   33 1
     4    1   34 1
     5    2   30 1
     6    2    3 1
     7    2   31 1
     8    3    4 1
     9    3   35 1
    10    3   36 1
    11    4   11 1
    12    4    5 2
    13    5    6 1
    14    5   28 1
    15    6    7 1
    16    6    8 1
    17    6   20 1
    18    8    9 1
    19    8   18 1
    20    8   10 1
    21   10   11 2
    22   10   12 1
    23   12   17 ar
    24   12   13 ar
    25   13   14 ar
    26   13   37 1
    27   14   15 ar
    28   14   38 1
    29   15   16 ar
    30   15   39 1
    31   16   17 ar
    32   16   40 1
    33   17   18 1
    34   18   19 2
    35   20   25 ar
    36   20   21 ar
    37   21   22 ar
    38   21   41 1
    39   22   23 ar
    40   22   42 1
    41   23   24 ar
    42   23   27 1
    43   24   25 ar
    44   24   26 1
    45   25   43 1
    46   26   44 1
    47   27   45 1
    48   28   29 2
    49   28   30 1
    50   30   46 1
    51   30   47 1
    52   31   48 1
    53   31   49 1
    54   31   50 1
@<TRIPOS>MOLECULE
ZINC39218072
   40    43     0     0     0
SMALL
USER_CHARGES

@<TRIPOS>ATOM
      1 C1          0.0196    1.3655   -0.2083 C.ar      1 <0>        -0.1071
      2 C2          1.2104    2.0690   -0.2300 C.ar      1 <0>        -0.1203
      3 C3          2.4140    1.3940   -0.2151 C.ar      1 <0>        -0.0864
      4 C4          2.4283    0.0010   -0.1781 C.ar      1 <0>        -0.0363
      5 C5          1.2256   -0.7026   -0.1563 C.ar      1 <0>        -0.1012
      6 C6          0.0278   -0.0172   -0.1714 C.ar      1 <0>        -0.1201
      7 C7          3.7192   -0.7303   -0.1624 C.2       1 <0>         0.0103
      8 C8          3.8424   -2.0713   -0.1324 C.2       1 <0>        -0.1431
      9 C9          5.3436   -2.2986   -0.1281 C.3       1 <0>        -0.0322
     10 H1          5.6510   -2.8561   -1.0129 H         1 <0>         0.1634
     11 N1          5.8901   -0.9318   -0.1591 N.2       1 <0>        -0.1382
     12 N2          4.9438   -0.1418   -0.1822 N.2       1 <0>        -0.1491
     13 C10         5.7759   -3.0284    1.1452 C.3       1 <0>         0.3173
     14 H2          5.5605   -2.4204    2.0239 H         1 <0>         0.0635
     15 N3          5.0958   -4.3463    1.2455 N.3       1 <0>        -0.4733
     16 N4          5.9989   -5.1190    2.1130 N.3       1 <0>        -0.4803
     17 C11         7.3566   -4.6952    1.7013 C.3       1 <0>         0.3678
     18 H3          7.7640   -5.4000    0.9764 H         1 <0>         0.1209
     19 N5          7.2138   -3.3613    1.0871 N.pl3     1 <0>        -0.6419
     20 C12         8.2353   -2.5694    0.5539 C.ar      1 <0>         0.1983
     21 C13         8.5817   -1.3736    1.1698 C.ar      1 <0>        -0.0635
     22 C14         9.5910   -0.5925    0.6418 C.ar      1 <0>        -0.1243
     23 C15        10.2576   -1.0000   -0.5011 C.ar      1 <0>         0.1121
     24 C16         9.9142   -2.1924   -1.1176 C.ar      1 <0>        -0.0631
     25 C17         8.9087   -2.9801   -0.5888 C.ar      1 <0>        -0.0881
     26 Cl1        10.7514   -2.7007   -2.5510 Cl        1 <0>        -0.0457
     27 F1         11.2439   -0.2339   -1.0163 F         1 <0>        -0.1248
     28 S1          8.4433   -4.5971    3.1505 S.3       1 <0>        -0.2666
     29 H4         -0.9200    1.8979   -0.2155 H         1 <0>         0.1263
     30 H5          1.1982    3.1486   -0.2591 H         1 <0>         0.1286
     31 H6          3.3432    1.9442   -0.2325 H         1 <0>         0.1342
     32 H7          1.2308   -1.7822   -0.1279 H         1 <0>         0.1241
     33 H8         -0.9049   -0.5615   -0.1542 H         1 <0>         0.1282
     34 H9          3.0566   -2.8120   -0.1151 H         1 <0>         0.1780
     35 H10         4.1837   -4.2514    1.6662 H         1 <0>         0.3615
     36 H11         5.8339   -4.9083    3.0859 H         1 <0>         0.3352
     37 H12         8.0617   -1.0546    2.0610 H         1 <0>         0.1352
     38 H13         9.8602    0.3373    1.1208 H         1 <0>         0.1493
     39 H14         8.6442   -3.9119   -1.0665 H         1 <0>         0.1421
     40 H15         8.4631   -5.8543    3.6280 H         1 <0>         0.1096
@<TRIPOS>BOND
     1    1    6 ar
     2    1    2 ar
     3    1   29 1
     4    2    3 ar
     5    2   30 1
     6    3    4 ar
     7    3   31 1
     8    4    5 ar
     9    4    7 1
    10    5    6 ar
    11    5   32 1
    12    6   33 1
    13    7   12 1
    14    7    8 2
    15    8    9 1
    16    8   34 1
    17    9   10 1
    18    9   11 1
    19    9   13 1
    20   11   12 2
    21   13   14 1
    22   13   19 1
    23   13   15 1
    24   15   16 1
    25   15   35 1
    26   16   17 1
    27   16   36 1
    28   17   18 1
    29   17   19 1
    30   17   28 1
    31   19   20 1
    32   20   25 ar
    33   20   21 ar
    34   21   22 ar
    35   21   37 1
    36   22   23 ar
    37   22   38 1
    38   23   24 ar
    39   23   27 1
    40   24   25 ar
    41   24   26 1
    42   25   39 1
    43   28   40 1
@<TRIPOS>MOLECULE
ZINC42028807
   29    31     0     0     0
SMALL
USER_CHARGES

@<TRIPOS>ATOM
      1 C1          0.1928    0.9628   -0.7873 C.ar      1 <0>        -0.1674
      2 C2          1.3760    1.6688   -0.8506 C.ar      1 <0>        -0.0191
      3 C3          2.3826    1.4257    0.0838 C.ar      1 <0>        -0.1385
      4 C4          2.1837    0.4627    1.0835 C.ar      1 <0>         0.2882
      5 C5          0.9881   -0.2391    1.1338 C.ar      1 <0>        -0.1921
      6 C6         -0.0016    0.0116    0.2014 C.ar      1 <0>         0.0456
      7 Cl1        -1.4955   -0.8700    0.2697 Cl        1 <0>        -0.0519
      8 N1          3.1824    0.2114    2.0216 N.pl3     1 <0>        -0.8535
      9 C7          3.6523    2.1788    0.0203 C.2       1 <0>         0.3162
     10 N2          4.8683    1.6737    0.0746 N.2       1 <0>        -0.3199
     11 N3          5.7470    2.6061   -0.0087 N.2       1 <0>        -0.0270
     12 N4          5.1780    3.7569   -0.1204 N.2       1 <0>        -0.0583
     13 N5          3.7904    3.5300   -0.1117 N.pl3     1 <0>        -0.3354
     14 C8          2.7695    4.4855   -0.2137 C.ar      1 <0>         0.0929
     15 C9          1.7058    4.4648    0.6778 C.ar      1 <0>        -0.0446
     16 C10         0.7008    5.4079    0.5748 C.ar      1 <0>        -0.0916
     17 C11         0.7533    6.3725   -0.4160 C.ar      1 <0>        -0.0406
     18 C12         1.8109    6.3968   -1.3059 C.ar      1 <0>        -0.1321
     19 C13         2.8233    5.4595   -1.2045 C.ar      1 <0>         0.1432
     20 F1          3.8598    5.4869   -2.0705 F         1 <0>        -0.1118
     21 Br1        -0.7484    5.3798    1.7893 Br        1 <0>        -0.0123
     22 H1         -0.5874    1.1554   -1.5088 H         1 <0>         0.1430
     23 H2          1.5230    2.4089   -1.6233 H         1 <0>         0.1316
     24 H3          0.8302   -0.9818    1.9019 H         1 <0>         0.1455
     25 H4          4.0177    0.7032    1.9842 H         1 <0>         0.4077
     26 H5          3.0425   -0.4552    2.7121 H         1 <0>         0.4082
     27 H6          1.6634    3.7120    1.4511 H         1 <0>         0.1521
     28 H7         -0.0338    7.1078   -0.4944 H         1 <0>         0.1583
     29 H8          1.8489    7.1507   -2.0783 H         1 <0>         0.1636
@<TRIPOS>BOND
     1    1    6 ar
     2    1    2 ar
     3    1   22 1
     4    2    3 ar
     5    2   23 1
     6    3    4 ar
     7    3    9 1
     8    4    5 ar
     9    4    8 1
    10    5    6 ar
    11    5   24 1
    12    6    7 1
    13    8   25 1
    14    8   26 1
    15    9   13 1
    16    9   10 2
    17   10   11 1
    18   11   12 2
    19   12   13 1
    20   13   14 1
    21   14   19 ar
    22   14   15 ar
    23   15   16 ar
    24   15   27 1
    25   16   17 ar
    26   16   21 1
    27   17   18 ar
    28   17   28 1
    29   18   19 ar
    30   18   29 1
    31   19   20 1
@<TRIPOS>MOLECULE
ZINC61692375
   32    34     0     0     0
SMALL
USER_CHARGES

@<TRIPOS>ATOM
      1 C1         -0.1784    0.5814   -0.0885 C.3       1 <0>        -0.1288
      2 C2         -1.1696   -0.4665    0.3478 C.ar      1 <0>        -0.0839
      3 C3         -1.8780   -1.1821   -0.5965 C.ar      1 <0>        -0.0702
      4 C4         -2.7877   -2.1444   -0.2016 C.ar      1 <0>        -0.1628
      5 C5         -2.9958   -2.3977    1.1494 C.ar      1 <0>         0.2143
      6 C6         -2.2890   -1.6839    2.1051 C.ar      1 <0>        -0.1612
      7 C7         -1.3671   -0.7173    1.7060 C.ar      1 <0>        -0.0040
      8 C8         -0.6044    0.0444    2.7199 C.2       1 <0>         0.3194
      9 N1         -0.4746    1.3533    2.7836 N.2       1 <0>        -0.3094
     10 N2          0.2533    1.6852    3.7878 N.2       1 <0>        -0.0298
     11 N3          0.6394    0.6387    4.4332 N.2       1 <0>        -0.0595
     12 N4          0.0936   -0.4748    3.7705 N.pl3     1 <0>        -0.3421
     13 C9          0.2382   -1.8261    4.1134 C.ar      1 <0>         0.1372
     14 C10         1.2189   -2.5972    3.5045 C.ar      1 <0>        -0.0489
     15 C11         1.3590   -3.9293    3.8447 C.ar      1 <0>        -0.0805
     16 C12         0.5228   -4.4949    4.7913 C.ar      1 <0>        -0.0533
     17 C13        -0.4551   -3.7300    5.3992 C.ar      1 <0>        -0.0933
     18 C14        -0.5961   -2.3952    5.0677 C.ar      1 <0>        -0.0067
     19 Cl1        -1.8194   -1.4333    5.8371 Cl        1 <0>        -0.0303
     20 Br1         2.6942   -4.9806    3.0153 Br        1 <0>        -0.0134
     21 N5         -3.9171   -3.3708    1.5440 N.pl3     1 <0>        -0.8752
     22 H1          0.8021    0.1229   -0.2172 H         1 <0>         0.0659
     23 H2         -0.5026    1.0171   -1.0336 H         1 <0>         0.0741
     24 H3         -0.1177    1.3622    0.6697 H         1 <0>         0.0852
     25 H4         -1.7209   -0.9890   -1.6475 H         1 <0>         0.1353
     26 H5         -3.3391   -2.7012   -0.9448 H         1 <0>         0.1300
     27 H6         -2.4493   -1.8789    3.1552 H         1 <0>         0.1212
     28 H7          1.8716   -2.1566    2.7654 H         1 <0>         0.1521
     29 H8          0.6342   -5.5362    5.0555 H         1 <0>         0.1571
     30 H9         -1.1064   -4.1742    6.1373 H         1 <0>         0.1601
     31 H10        -4.4760   -3.8064    0.8817 H         1 <0>         0.4024
     32 H11        -3.9980   -3.6108    2.4804 H         1 <0>         0.3991
@<TRIPOS>BOND
     1    1    2 1
     2    1   22 1
     3    1   23 1
     4    1   24 1
     5    2    7 ar
     6    2    3 ar
     7    3    4 ar
     8    3   25 1
     9    4    5 ar
    10    4   26 1
    11    5    6 ar
    12    5   21 1
    13    6    7 ar
    14    6   27 1
    15    7    8 1
    16    8   12 1
    17    8    9 2
    18    9   10 1
    19   10   11 2
    20   11   12 1
    21   12   13 1
    22   13   18 ar
    23   13   14 ar
    24   14   15 ar
    25   14   28 1
    26   15   16 ar
    27   15   20 1
    28   16   17 ar
    29   16   29 1
    30   17   18 ar
    31   17   30 1
    32   18   19 1
    33   21   31 1
    34   21   32 1
@<TRIPOS>MOLECULE
ZINC10233432
   49    52     0     0     0
SMALL
USER_CHARGES
6-(2-aminophenyl)-2-butyl-4,7-dimethyl-purino[7,8-a]imidazole-1,3-dione
@<TRIPOS>ATOM
      1 C1         -6.2245    5.4984    1.2530 C.3       1 <0>        -0.1521
      2 C2         -5.9381    4.0606    1.6907 C.3       1 <0>        -0.1191
      3 C3         -4.4257    3.8428    1.7684 C.3       1 <0>        -0.1339
      4 C4         -4.1393    2.4049    2.2061 C.3       1 <0>         0.1154
      5 N1         -2.6912    2.1964    2.2805 N.am      1 <0>        -0.5504
      6 C5         -2.0441    2.4424    3.4382 C.2       1 <0>         0.5987
      7 O1         -2.6583    2.8342    4.4153 O.2       1 <0>        -0.5190
      8 C6         -0.6555    2.2421    3.5068 C.2       1 <0>        -0.1854
      9 C7          0.0230    1.7928    2.3745 C.2       1 <0>         0.3742
     10 N2          1.3099    1.6843    2.6936 N.2       1 <0>        -0.4996
     11 C8          1.4941    2.0359    3.9575 C.2       1 <0>         0.4440
     12 N3          0.2995    2.3898    4.5012 N.pl3     1 <0>        -0.3526
     13 C9          0.5177    2.7518    5.8187 C.2       1 <0>        -0.0146
     14 C10         1.8154    2.6239    6.0801 C.2       1 <0>         0.0779
     15 N4          2.4470    2.1781    4.9334 N.pl3     1 <0>        -0.4010
     16 C11         3.8178    1.9182    4.7934 C.ar      1 <0>         0.0273
     17 C12         4.6782    2.9252    4.3823 C.ar      1 <0>        -0.0443
     18 C13         6.0292    2.6671    4.2458 C.ar      1 <0>        -0.1688
     19 C14         6.5275    1.4061    4.5178 C.ar      1 <0>        -0.0466
     20 C15         5.6774    0.3961    4.9272 C.ar      1 <0>        -0.1916
     21 C16         4.3209    0.6478    5.0728 C.ar      1 <0>         0.2455
     22 N5          3.4596   -0.3709    5.4929 N.pl3     1 <0>        -0.8668
     23 C17         2.4831    2.9153    7.3992 C.3       1 <0>        -0.0836
     24 N6         -0.6984    1.5583    1.2133 N.am      1 <0>        -0.5100
     25 C18        -2.0279    1.7700    1.1921 C.2       1 <0>         0.7104
     26 O2         -2.6448    1.5643    0.1645 O.2       1 <0>        -0.5306
     27 C19        -0.0127    1.0858    0.0080 C.3       1 <0>         0.0888
     28 H1         -5.7944    6.1909    1.9765 H         1 <0>         0.0537
     29 H2         -5.7812    5.6750    0.2730 H         1 <0>         0.0544
     30 H3         -7.3020    5.6536    1.1976 H         1 <0>         0.0567
     31 H4         -6.3683    3.3680    0.9672 H         1 <0>         0.0667
     32 H5         -6.3815    3.8840    2.6707 H         1 <0>         0.0658
     33 H6         -3.9956    4.5353    2.4919 H         1 <0>         0.0677
     34 H7         -3.9824    4.0193    0.7884 H         1 <0>         0.0694
     35 H8         -4.5695    1.7124    1.4826 H         1 <0>         0.1020
     36 H9         -4.5827    2.2284    3.1861 H         1 <0>         0.1008
     37 H10        -0.2376    3.0821    6.5164 H         1 <0>         0.1964
     38 H11         4.2925    3.9112    4.1691 H         1 <0>         0.1283
     39 H12         6.6978    3.4528    3.9262 H         1 <0>         0.1318
     40 H13         7.5840    1.2098    4.4096 H         1 <0>         0.1322
     41 H14         6.0698   -0.5877    5.1381 H         1 <0>         0.1324
     42 H15         2.5108   -0.1944    5.5904 H         1 <0>         0.3980
     43 H16         3.8110   -1.2540    5.6868 H         1 <0>         0.4053
     44 H17         2.7987    3.9583    7.4242 H         1 <0>         0.0894
     45 H18         1.7803    2.7287    8.2113 H         1 <0>         0.0955
     46 H19         3.3534    2.2695    7.5164 H         1 <0>         0.0809
     47 H20         0.0021   -0.0041    0.0020 H         1 <0>         0.0736
     48 H21         1.0099    1.4631    0.0003 H         1 <0>         0.0917
     49 H22        -0.5399    1.4469   -0.8751 H         1 <0>         0.0950
@<TRIPOS>BOND
     1    1    2 1
     2    1   28 1
     3    1   29 1
     4    1   30 1
     5    2    3 1
     6    2   31 1
     7    2   32 1
     8    3    4 1
     9    3   33 1
    10    3   34 1
    11    4    5 1
    12    4   35 1
    13    4   36 1
    14    5   25 am
    15    5    6 am
    16    6    7 2
    17    6    8 1
    18    8   12 1
    19    8    9 2
    20    9   10 1
    21    9   24 1
    22   10   11 2
    23   11   15 1
    24   11   12 1
    25   12   13 1
    26   13   14 2
    27   13   37 1
    28   14   15 1
    29   14   23 1
    30   15   16 1
    31   16   21 ar
    32   16   17 ar
    33   17   18 ar
    34   17   38 1
    35   18   19 ar
    36   18   39 1
    37   19   20 ar
    38   19   40 1
    39   20   21 ar
    40   20   41 1
    41   21   22 1
    42   22   42 1
    43   22   43 1
    44   23   44 1
    45   23   45 1
    46   23   46 1
    47   24   25 am
    48   24   27 1
    49   25   26 2
    50   27   47 1
    51   27   48 1
    52   27   49 1
@<TRIPOS>MOLECULE
ZINC38742769
   46    50     0     0     0
SMALL
USER_CHARGES

@<TRIPOS>ATOM
      1 C1         -0.0187    1.5258    0.0104 C.3       1 <0>        -0.1453
      2 C2          0.0021   -0.0041    0.0020 C.3       1 <0>        -0.0257
      3 C3          0.7182   -0.4975   -1.2568 C.3       1 <0>        -0.1462
      4 C4          0.7309   -0.5033    1.2229 C.2       1 <0>        -0.0309
      5 C5          0.1936   -1.2907    2.1572 C.2       1 <0>        -0.1428
      6 C6          1.3216   -1.4997    3.1520 C.3       1 <0>        -0.0334
      7 H1          1.5859   -2.5551    3.2190 H         1 <0>         0.1583
      8 N1          2.4272   -0.7220    2.5670 N.2       1 <0>        -0.1335
      9 N2          2.0190   -0.2191    1.5173 N.2       1 <0>        -0.1562
     10 C7          0.9382   -0.9515    4.5280 C.3       1 <0>         0.4007
     11 H2          0.7167    0.1136    4.4604 H         1 <0>         0.0862
     12 N3         -0.2328   -1.6855    5.0640 N.3       1 <0>        -0.4973
     13 N4          0.1762   -2.2320    6.3691 N.3       1 <0>        -0.4479
     14 C8          1.2693   -1.3274    6.7790 C.3       1 <0>         0.2073
     15 H3          0.9246   -0.3848    7.2041 H         1 <0>         0.1126
     16 N5          2.0336   -1.1863    5.4960 N.pl3     1 <0>        -0.5108
     17 N6          3.3890   -1.3940    5.6333 N.2       1 <0>        -0.1756
     18 C9          3.9144   -1.9681    6.6765 C.2       1 <0>         0.1707
     19 S1          2.5090   -2.1961    7.8096 S.3       1 <0>        -0.1507
     20 C10         5.3277   -2.3418    6.8957 C.ar      1 <0>        -0.0065
     21 C11         5.7112   -2.9621    8.0859 C.ar      1 <0>        -0.0783
     22 C12         7.0303   -3.3086    8.2879 C.ar      1 <0>        -0.1102
     23 C13         7.9810   -3.0439    7.3109 C.ar      1 <0>         0.0709
     24 C14         7.6048   -2.4281    6.1213 C.ar      1 <0>         0.0519
     25 C15         6.2813   -2.0808    5.9112 C.ar      1 <0>        -0.0680
     26 O1          8.5233   -2.1687    5.1504 O.3       1 <0>        -0.3024
     27 C16         9.8998   -2.1959    5.5428 C.3       1 <0>         0.0196
     28 C17        10.1337   -3.4554    6.3878 C.3       1 <0>         0.0188
     29 O2          9.2782   -3.3915    7.5339 O.3       1 <0>        -0.3035
     30 H4          1.0039    1.9031    0.0027 H         1 <0>         0.0654
     31 H5         -0.5459    1.8868   -0.8726 H         1 <0>         0.0642
     32 H6         -0.5289    1.8773    0.9072 H         1 <0>         0.0526
     33 H7         -1.0205   -0.3814    0.0098 H         1 <0>         0.0867
     34 H8          1.7408   -0.1202   -1.2645 H         1 <0>         0.0656
     35 H9          0.7330   -1.5874   -1.2628 H         1 <0>         0.0541
     36 H10         0.1910   -0.1364   -2.1398 H         1 <0>         0.0641
     37 H11        -0.8104   -1.6868    2.1966 H         1 <0>         0.1766
     38 H12        -1.0293   -1.0738    5.1617 H         1 <0>         0.3393
     39 H13        -0.5861   -2.2003    7.0293 H         1 <0>         0.3533
     40 H14         4.9751   -3.1700    8.8484 H         1 <0>         0.1391
     41 H15         7.3254   -3.7876    9.2098 H         1 <0>         0.1454
     42 H16         5.9877   -1.6048    4.9873 H         1 <0>         0.1489
     43 H17        10.5341   -2.2245    4.6569 H         1 <0>         0.1257
     44 H18        10.1314   -1.3091    6.1329 H         1 <0>         0.0805
     45 H19         9.8952   -4.3419    5.8001 H         1 <0>         0.0812
     46 H20        11.1748   -3.4952    6.7081 H         1 <0>         0.1257
@<TRIPOS>BOND
     1    1    2 1
     2    1   30 1
     3    1   31 1
     4    1   32 1
     5    2    3 1
     6    2    4 1
     7    2   33 1
     8    3   34 1
     9    3   35 1
    10    3   36 1
    11    4    9 1
    12    4    5 2
    13    5    6 1
    14    5   37 1
    15    6    7 1
    16    6    8 1
    17    6   10 1
    18    8    9 2
    19   10   11 1
    20   10   16 1
    21   10   12 1
    22   12   13 1
    23   12   38 1
    24   13   14 1
    25   13   39 1
    26   14   15 1
    27   14   19 1
    28   14   16 1
    29   16   17 1
    30   17   18 2
    31   18   19 1
    32   18   20 1
    33   20   25 ar
    34   20   21 ar
    35   21   22 ar
    36   21   40 1
    37   22   23 ar
    38   22   41 1
    39   23   29 1
    40   23   24 ar
    41   24   25 ar
    42   24   26 1
    43   25   42 1
    44   26   27 1
    45   27   28 1
    46   27   43 1
    47   27   44 1
    48   28   29 1
    49   28   45 1
    50   28   46 1
@<TRIPOS>MOLECULE
ZINC44506009
   40    42     0     0     0
SMALL
USER_CHARGES

@<TRIPOS>ATOM
      1 C1          2.0393    1.2993    0.1063 C.3       1 <0>        -0.1139
      2 C2          1.6323   -0.1515    0.0796 C.ar      1 <0>        -0.0860
      3 C3          1.3911   -0.7748   -1.1365 C.ar      1 <0>        -0.0880
      4 C4          1.0182   -2.1020   -1.1803 C.ar      1 <0>        -0.1089
      5 C5          0.8834   -2.8181    0.0008 C.ar      1 <0>         0.0582
      6 C6          1.1278   -2.1866    1.2334 C.ar      1 <0>         0.0573
      7 C7          1.5099   -0.8410    1.2524 C.ar      1 <0>        -0.0625
      8 N1          0.9230   -3.1093    2.2043 N.2       1 <0>        -0.4646
      9 C8          0.5735   -4.2517    1.6605 C.2       1 <0>         0.3120
     10 N2          0.5349   -4.1221    0.2969 N.pl3     1 <0>        -0.5883
     11 H1          0.3061   -4.8160   -0.3411 H         1 <0>         0.4248
     12 C9          0.2691   -5.4877    2.4044 C.2       1 <0>         0.0033
     13 C10         0.1857   -5.4614    3.7668 C.2       1 <0>         0.0336
     14 C11         0.1775   -4.1784    4.4760 C.ar      1 <0>        -0.0472
     15 C12        -0.6227   -3.1248    4.0141 C.ar      1 <0>         0.0144
     16 C13        -0.6284   -1.9213    4.6830 C.ar      1 <0>        -0.0498
     17 C14         0.1576   -1.7476    5.8150 C.ar      1 <0>         0.1635
     18 C15         0.9570   -2.7909    6.2816 C.ar      1 <0>         0.0947
     19 C16         0.9655   -4.0033    5.6216 C.ar      1 <0>        -0.1140
     20 O1          1.7249   -2.6152    7.3901 O.3       1 <0>        -0.2977
     21 C17         2.5190   -3.7259    7.8120 C.3       1 <0>         0.0211
     22 O2          0.1480   -0.5575    6.4695 O.3       1 <0>        -0.4611
     23 N3         -1.4741   -0.8092    4.1941 N.pl3     1 <0>         0.0413
     24 O3         -2.0834   -0.9243    3.1562 O.2       1 <0>        -0.1640
     25 O4         -1.5556    0.2142    4.8326 O.3       1 <0>        -0.1372
     26 C18         0.0609   -6.7157    1.6978 C.1       1 <0>         0.2403
     27 N4         -0.1042   -7.6899    1.1373 N.1       1 <0>        -0.3800
     28 H2          3.1255    1.3729    0.0535 H         1 <0>         0.0721
     29 H3          1.5982    1.8161   -0.7460 H         1 <0>         0.0703
     30 H4          1.6886    1.7581    1.0307 H         1 <0>         0.0687
     31 H5          1.4959   -0.2167   -2.0552 H         1 <0>         0.1345
     32 H6          0.8315   -2.5818   -2.1297 H         1 <0>         0.1271
     33 H7          1.7040   -0.3470    2.1930 H         1 <0>         0.1256
     34 H8          0.1258   -6.3858    4.3220 H         1 <0>         0.1639
     35 H9         -1.2344   -3.2567    3.1338 H         1 <0>         0.1497
     36 H10         1.5807   -4.8133    5.9847 H         1 <0>         0.1537
     37 H11         1.8699   -4.5722    8.0365 H         1 <0>         0.0603
     38 H12         3.2117   -4.0003    7.0163 H         1 <0>         0.0608
     39 H13         3.0812   -3.4523    8.7048 H         1 <0>         0.1088
     40 H14        -0.5210   -0.4966    7.1651 H         1 <0>         0.4032
@<TRIPOS>BOND
     1    1    2 1
     2    1   28 1
     3    1   29 1
     4    1   30 1
     5    2    7 ar
     6    2    3 ar
     7    3    4 ar
     8    3   31 1
     9    4    5 ar
    10    4   32 1
    11    5   10 1
    12    5    6 ar
    13    6    7 ar
    14    6    8 1
    15    7   33 1
    16    8    9 2
    17    9   10 1
    18    9   12 1
    19   10   11 1
    20   12   13 2
    21   12   26 1
    22   13   14 1
    23   13   34 1
    24   14   19 ar
    25   14   15 ar
    26   15   16 ar
    27   15   35 1
    28   16   17 ar
    29   16   23 1
    30   17   18 ar
    31   17   22 1
    32   18   19 ar
    33   18   20 1
    34   19   36 1
    35   20   21 1
    36   21   37 1
    37   21   38 1
    38   21   39 1
    39   22   40 1
    40   23   24 2
    41   23   25 1
    42   26   27 3
@<TRIPOS>MOLECULE
ZINC47584114
   45    47     0     0     0
SMALL
USER_CHARGES

@<TRIPOS>ATOM
      1 C1         -0.0172    1.4237    0.0326 C.3       1 <0>         0.0743
      2 N1          0.0192   -0.0407    0.0172 N.am      1 <0>        -0.6244
      3 C2          0.0518   -0.7859    1.2781 C.3       1 <0>         0.1766
      4 C3         -1.3573   -1.0769    1.7263 C.ar      1 <0>        -0.1035
      5 C4         -2.0231   -0.1761    2.5367 C.ar      1 <0>        -0.0956
      6 C5         -3.3160   -0.4383    2.9500 C.ar      1 <0>        -0.1047
      7 C6         -3.9475   -1.6058    2.5530 C.ar      1 <0>         0.0364
      8 C7         -3.2768   -2.5131    1.7367 C.ar      1 <0>         0.0297
      9 C8         -1.9832   -2.2410    1.3216 C.ar      1 <0>        -0.0739
     10 O1         -4.1035   -3.5706    1.4885 O.3       1 <0>        -0.3071
     11 C9         -5.1345   -3.4961    2.4908 C.3       1 <0>         0.2126
     12 O2         -5.1945   -2.0947    2.8161 O.3       1 <0>        -0.3095
     13 C10         0.0226   -0.7025   -1.1569 C.2       1 <0>         0.7069
     14 O3          0.0527   -1.9179   -1.1697 O.2       1 <0>        -0.5657
     15 N2         -0.0075   -0.0169   -2.3169 N.am      1 <0>        -0.6848
     16 C11         0.0929   -0.6992   -3.5368 C.ar      1 <0>         0.1515
     17 C12         0.7696   -0.1204   -4.6022 C.ar      1 <0>        -0.1269
     18 C13         0.8685   -0.7926   -5.8041 C.ar      1 <0>        -0.1191
     19 C14         0.2914   -2.0473   -5.9474 C.ar      1 <0>         0.1371
     20 C15        -0.3853   -2.6260   -4.8819 C.ar      1 <0>        -0.0982
     21 C16        -0.4793   -1.9564   -3.6783 C.ar      1 <0>        -0.0983
     22 N3          0.3914   -2.7294   -7.1675 N.am      1 <0>        -0.6486
     23 C17        -0.6290   -3.4993   -7.5947 C.2       1 <0>         0.6459
     24 O4         -1.6003   -3.6696   -6.8847 O.2       1 <0>        -0.5506
     25 O5         -0.5720   -4.0799   -8.8083 O.3       1 <0>        -0.3629
     26 C18        -1.6887   -4.8827   -9.1965 C.3       1 <0>         0.0528
     27 H1          1.0011    1.8125    0.0249 H         1 <0>         0.0628
     28 H2         -0.5500    1.7832   -0.8477 H         1 <0>         0.0662
     29 H3         -0.5297    1.7650    0.9320 H         1 <0>         0.0796
     30 H4          0.5876   -1.7239    1.1321 H         1 <0>         0.0994
     31 H5          0.5595   -0.1920    2.0381 H         1 <0>         0.0951
     32 H6         -1.5321    0.7341    2.8478 H         1 <0>         0.1372
     33 H7         -3.8338    0.2671    3.5831 H         1 <0>         0.1364
     34 H8         -1.4623   -2.9407    0.6849 H         1 <0>         0.1428
     35 H9         -6.0876   -3.8364    2.0860 H         1 <0>         0.1328
     36 H10        -4.8589   -4.0814    3.3680 H         1 <0>         0.0859
     37 H11        -0.0986    0.9487   -2.3073 H         1 <0>         0.4066
     38 H12         1.2182    0.8557   -4.4909 H         1 <0>         0.1314
     39 H13         1.3945   -0.3423   -6.6329 H         1 <0>         0.1327
     40 H14        -0.8345   -3.6018   -4.9935 H         1 <0>         0.1435
     41 H15        -1.0014   -2.4086   -2.8481 H         1 <0>         0.1457
     42 H16         1.1949   -2.6473   -7.7045 H         1 <0>         0.4179
     43 H17        -2.5903   -4.2702   -9.2068 H         1 <0>         0.0634
     44 H18        -1.5147   -5.2899  -10.1924 H         1 <0>         0.1068
     45 H19        -1.8129   -5.7001   -8.4863 H         1 <0>         0.0637
@<TRIPOS>BOND
     1    1    2 1
     2    1   27 1
     3    1   28 1
     4    1   29 1
     5    2    3 1
     6    2   13 am
     7    3    4 1
     8    3   30 1
     9    3   31 1
    10    4    9 ar
    11    4    5 ar
    12    5    6 ar
    13    5   32 1
    14    6    7 ar
    15    6   33 1
    16    7   12 1
    17    7    8 ar
    18    8    9 ar
    19    8   10 1
    20    9   34 1
    21   10   11 1
    22   11   12 1
    23   11   35 1
    24   11   36 1
    25   13   14 2
    26   13   15 am
    27   15   16 1
    28   15   37 1
    29   16   21 ar
    30   16   17 ar
    31   17   18 ar
    32   17   38 1
    33   18   19 ar
    34   18   39 1
    35   19   20 ar
    36   19   22 1
    37   20   21 ar
    38   20   40 1
    39   21   41 1
    40   22   23 am
    41   22   42 1
    42   23   24 2
    43   23   25 1
    44   25   26 1
    45   26   43 1
    46   26   44 1
    47   26   45 1
@<TRIPOS>MOLECULE
ZINC06265385
   46    48     0     0     0
SMALL
USER_CHARGES

@<TRIPOS>ATOM
      1 C1         -0.0187    1.5258    0.0104 C.3       1 <0>        -0.1532
      2 C2          0.0021   -0.0041    0.0020 C.3       1 <0>        -0.1248
      3 C3         -1.4333   -0.5336    0.0129 C.3       1 <0>        -0.1274
      4 C4         -1.4126   -2.0635    0.0045 C.3       1 <0>         0.1597
      5 H1         -0.8102   -2.4233    0.8386 H         1 <0>         0.0970
      6 C5         -0.8086   -2.5581   -1.3114 C.3       1 <0>        -0.1649
      7 N1         -2.7806   -2.5711    0.1352 N.pl3     1 <0>        -0.3721
      8 C6         -3.2482   -3.3724    1.1499 C.2       1 <0>         0.3514
      9 C7         -4.5529   -3.6129    0.8962 C.2       1 <0>        -0.2720
     10 C8         -4.8906   -2.9410   -0.3021 C.2       1 <0>         0.2922
     11 N2         -3.8324   -2.3193   -0.7451 N.2       1 <0>        -0.2629
     12 O1         -6.1162   -2.9388   -0.8913 O.3       1 <0>        -0.4484
     13 C9         -5.5533   -4.4207    1.6620 C.3       1 <0>         0.0476
     14 H2         -6.0096   -3.7847    2.4205 H         1 <0>         0.1080
     15 S1         -4.8393   -5.8567    2.4679 S.3       1 <0>        -0.1677
     16 C10        -3.7569   -5.2173    3.7534 C.3       1 <0>        -0.1246
     17 C11        -2.5587   -4.5398    3.2143 C.2       1 <0>         0.5409
     18 O2         -1.5388   -4.7309    3.8423 O.2       1 <0>        -0.5215
     19 N3         -2.4246   -3.7722    2.1748 N.am      1 <0>        -0.6277
     20 C12        -6.6274   -4.8862    0.7128 C.ar      1 <0>         0.0013
     21 C13        -6.2977   -5.6858   -0.3655 C.ar      1 <0>        -0.0775
     22 C14        -7.2829   -6.1128   -1.2361 C.ar      1 <0>        -0.0466
     23 C15        -8.5978   -5.7405   -1.0282 C.ar      1 <0>        -0.0415
     24 C16        -8.9276   -4.9416    0.0507 C.ar      1 <0>        -0.0515
     25 C17        -7.9430   -4.5182    0.9237 C.ar      1 <0>        -0.1035
     26 N4         -9.6526   -6.1969   -1.9610 N.pl3     1 <0>         0.0327
     27 O3         -9.3641   -6.8952   -2.9047 O.2       1 <0>        -0.1582
     28 O4        -10.8026   -5.8713   -1.7791 O.3       1 <0>        -0.1585
     29 H3          1.0039    1.9031    0.0027 H         1 <0>         0.0593
     30 H4         -0.5459    1.8868   -0.8726 H         1 <0>         0.0570
     31 H5         -0.5289    1.8773    0.9072 H         1 <0>         0.0545
     32 H6          0.5123   -0.3556   -0.8948 H         1 <0>         0.0713
     33 H7          0.5293   -0.3651    0.8851 H         1 <0>         0.0650
     34 H8         -1.9435   -0.1821    0.9097 H         1 <0>         0.0688
     35 H9         -1.9605   -0.1726   -0.8702 H         1 <0>         0.0837
     36 H10        -0.7938   -3.6480   -1.3174 H         1 <0>         0.0635
     37 H11        -1.4109   -2.1983   -2.1456 H         1 <0>         0.0773
     38 H12         0.2092   -2.1804   -1.4086 H         1 <0>         0.0844
     39 H13        -6.6928   -2.2206   -0.5968 H         1 <0>         0.3992
     40 H14        -4.3167   -4.5080    4.3630 H         1 <0>         0.1278
     41 H15        -3.4370   -6.0449    4.3866 H         1 <0>         0.1599
     42 H16        -1.5346   -3.3927    2.1056 H         1 <0>         0.4047
     43 H17        -5.2704   -5.9767   -0.5280 H         1 <0>         0.1430
     44 H18        -7.0252   -6.7369   -2.0790 H         1 <0>         0.1526
     45 H19        -9.9549   -4.6504    0.2129 H         1 <0>         0.1547
     46 H20        -8.2012   -3.8971    1.7687 H         1 <0>         0.1469
@<TRIPOS>BOND
     1    1    2 1
     2    1   29 1
     3    1   30 1
     4    1   31 1
     5    2    3 1
     6    2   32 1
     7    2   33 1
     8    3    4 1
     9    3   34 1
    10    3   35 1
    11    4    5 1
    12    4    6 1
    13    4    7 1
    14    6   36 1
    15    6   37 1
    16    6   38 1
    17    7   11 1
    18    7    8 1
    19    8   19 1
    20    8    9 2
    21    9   10 1
    22    9   13 1
    23   10   11 2
    24   10   12 1
    25   12   39 1
    26   13   14 1
    27   13   15 1
    28   13   20 1
    29   15   16 1
    30   16   17 1
    31   16   40 1
    32   16   41 1
    33   17   18 2
    34   17   19 am
    35   19   42 1
    36   20   25 ar
    37   20   21 ar
    38   21   22 ar
    39   21   43 1
    40   22   23 ar
    41   22   44 1
    42   23   24 ar
    43   23   26 1
    44   24   25 ar
    45   24   45 1
    46   25   46 1
    47   26   27 2
    48   26   28 1
@<TRIPOS>MOLECULE
ZINC67556352
   43    45     0     0     0
SMALL
USER_CHARGES

@<TRIPOS>ATOM
      1 C1         -0.5066    1.2696    0.5581 C.3       1 <0>        -0.1262
      2 C2         -0.2556   -0.1982    0.3263 C.ar      1 <0>        -0.0360
      3 C3         -0.9020   -0.8542   -0.7055 C.ar      1 <0>        -0.0968
      4 C4         -0.6742   -2.1991   -0.9206 C.ar      1 <0>        -0.0694
      5 C5          0.2051   -2.8930   -0.0994 C.ar      1 <0>         0.1661
      6 C6          0.8524   -2.2315    0.9356 C.ar      1 <0>        -0.0888
      7 C7          0.6245   -0.8848    1.1420 C.ar      1 <0>        -0.0258
      8 N1          1.3188   -0.1774    2.2414 N.pl3     1 <0>         0.0305
      9 O1          1.6986    0.9595    2.0839 O.2       1 <0>        -0.1423
     10 O2          1.5061   -0.7366    3.2968 O.3       1 <0>        -0.1561
     11 N2          0.4378   -4.2561   -0.3143 N.am      1 <0>        -0.6830
     12 C8          0.4416   -4.7495   -1.5686 C.2       1 <0>         0.7086
     13 O3          0.1609   -4.0283   -2.5064 O.2       1 <0>        -0.5667
     14 N3          0.7565   -6.0422   -1.7832 N.am      1 <0>        -0.7354
     15 C9          0.7606   -6.5785   -3.1465 C.3       1 <0>         0.1783
     16 C10         1.1430   -8.0358   -3.1119 C.ar      1 <0>        -0.0795
     17 C11         2.4732   -8.4024   -3.2050 C.ar      1 <0>        -0.0886
     18 C12         2.8280   -9.7371   -3.1737 C.ar      1 <0>        -0.0878
     19 C13         1.8483  -10.7118   -3.0486 C.ar      1 <0>         0.0983
     20 C14         0.5117  -10.3415   -2.9551 C.ar      1 <0>         0.1044
     21 C15         0.1638   -9.0029   -2.9815 C.ar      1 <0>        -0.1161
     22 F1         -0.4455  -11.2872   -2.8337 F         1 <0>        -0.1232
     23 N4          2.2060  -12.0683   -3.0170 N.pl3     1 <0>        -0.4228
     24 C16         1.7962  -12.9978   -2.0965 C.2       1 <0>        -0.0451
     25 C17         2.3723  -14.1659   -2.4387 C.2       1 <0>        -0.0193
     26 N5          3.1143  -13.9609   -3.5370 N.2       1 <0>        -0.4815
     27 C18         3.0188  -12.7095   -3.8959 C.2       1 <0>         0.1938
     28 H1          0.2802    1.8527    0.0796 H         1 <0>         0.0954
     29 H2         -1.4721    1.5446    0.1334 H         1 <0>         0.0806
     30 H3         -0.5095    1.4730    1.6289 H         1 <0>         0.0728
     31 H4         -1.5859   -0.3142   -1.3435 H         1 <0>         0.1523
     32 H5         -1.1795   -2.7109   -1.7262 H         1 <0>         0.1609
     33 H6          1.5367   -2.7683    1.5759 H         1 <0>         0.1500
     34 H7          0.5963   -4.8458    0.4393 H         1 <0>         0.4133
     35 H8          0.9804   -6.6176   -1.0350 H         1 <0>         0.4024
     36 H9         -0.2335   -6.4740   -3.5811 H         1 <0>         0.0870
     37 H10         1.4812   -6.0281   -3.7513 H         1 <0>         0.0889
     38 H11         3.2358   -7.6439   -3.3027 H         1 <0>         0.1458
     39 H12         3.8672  -10.0217   -3.2468 H         1 <0>         0.1471
     40 H13        -0.8738   -8.7133   -2.9045 H         1 <0>         0.1501
     41 H14         1.1380  -12.8262   -1.2577 H         1 <0>         0.1766
     42 H15         2.2573  -15.1053   -1.9184 H         1 <0>         0.1769
     43 H16         3.5065  -12.2590   -4.7477 H         1 <0>         0.2102
@<TRIPOS>BOND
     1    1    2 1
     2    1   28 1
     3    1   29 1
     4    1   30 1
     5    2    7 ar
     6    2    3 ar
     7    3    4 ar
     8    3   31 1
     9    4    5 ar
    10    4   32 1
    11    5    6 ar
    12    5   11 1
    13    6    7 ar
    14    6   33 1
    15    7    8 1
    16    8    9 2
    17    8   10 1
    18   11   12 am
    19   11   34 1
    20   12   13 2
    21   12   14 am
    22   14   15 1
    23   14   35 1
    24   15   16 1
    25   15   36 1
    26   15   37 1
    27   16   21 ar
    28   16   17 ar
    29   17   18 ar
    30   17   38 1
    31   18   19 ar
    32   18   39 1
    33   19   20 ar
    34   19   23 1
    35   20   21 ar
    36   20   22 1
    37   21   40 1
    38   23   27 1
    39   23   24 1
    40   24   25 2
    41   24   41 1
    42   25   26 1
    43   25   42 1
    44   26   27 2
    45   27   43 1
@<TRIPOS>MOLECULE
ZINC05038323
   40    42     0     0     0
SMALL
USER_CHARGES
2-(3,5-dichlorophenoxy)-N-(2,5-dioxabicyclo[4.4.0]deca-6,8,10-trien-8-ylcarbamoyl)acetamide
@<TRIPOS>ATOM
      1 C1          1.3468   -0.4604    0.7406 C.ar      1 <0>        -0.1123
      2 C2          0.1428    0.2172    0.7659 C.ar      1 <0>        -0.0904
      3 C3         -0.0159    1.3831    0.0323 C.ar      1 <0>         0.0397
      4 C4          1.0396    1.8733   -0.7284 C.ar      1 <0>         0.0711
      5 C5          2.2466    1.1923   -0.7548 C.ar      1 <0>        -0.1373
      6 C6          2.4013    0.0247   -0.0204 C.ar      1 <0>         0.1621
      7 N1          3.6215   -0.6636   -0.0469 N.am      1 <0>        -0.6727
      8 C7          3.6390   -2.0080    0.0464 C.2       1 <0>         0.6976
      9 O1          2.5949   -2.6302    0.0561 O.2       1 <0>        -0.5039
     10 N2          4.8143   -2.6625    0.1289 N.am      1 <0>        -0.6850
     11 C8          4.8318   -4.0069    0.2221 C.2       1 <0>         0.5198
     12 O2          3.7904   -4.6275    0.2318 O.2       1 <0>        -0.4322
     13 C9          6.1460   -4.7388    0.3144 C.3       1 <0>         0.0415
     14 O3          5.9033   -6.1442    0.4036 O.3       1 <0>        -0.2789
     15 C10         6.9911   -6.9536    0.4940 C.ar      1 <0>         0.1571
     16 C11         8.2659   -6.4066    0.4910 C.ar      1 <0>        -0.2010
     17 C12         9.3714   -7.2314    0.5883 C.ar      1 <0>         0.0164
     18 C13         9.2070   -8.6024    0.6772 C.ar      1 <0>        -0.1371
     19 C14         7.9365   -9.1503    0.6750 C.ar      1 <0>         0.0161
     20 C15         6.8284   -8.3283    0.5836 C.ar      1 <0>        -0.1336
     21 Cl1         7.7334  -10.8706    0.7878 Cl        1 <0>        -0.0400
     22 Cl2        10.9668   -6.5470    0.5913 Cl        1 <0>        -0.0470
     23 O4          0.9054    3.0208   -1.4481 O.3       1 <0>        -0.3061
     24 C16        -0.4303    3.4730   -1.6958 C.3       1 <0>         0.0206
     25 C17        -1.2161    3.3948   -0.3799 C.3       1 <0>         0.0198
     26 O5         -1.2127    2.0327    0.0628 O.3       1 <0>        -0.3056
     27 H1          1.4672   -1.3683    1.3130 H         1 <0>         0.1459
     28 H2         -0.6766   -0.1623    1.3583 H         1 <0>         0.1416
     29 H3          3.0667    1.5701   -1.3472 H         1 <0>         0.1398
     30 H4          4.4536   -0.1724   -0.1323 H         1 <0>         0.4114
     31 H5          5.6475   -2.1660    0.1212 H         1 <0>         0.4139
     32 H6          6.7420   -4.5286   -0.5737 H         1 <0>         0.1066
     33 H7          6.6855   -4.4062    1.2012 H         1 <0>         0.1068
     34 H8          8.3947   -5.3369    0.4172 H         1 <0>         0.1462
     35 H9         10.0716   -9.2457    0.7487 H         1 <0>         0.1490
     36 H10         5.8368   -8.7562    0.5823 H         1 <0>         0.1530
     37 H11        -0.4095    4.5033   -2.0509 H         1 <0>         0.1244
     38 H12        -0.9012    2.8357   -2.4443 H         1 <0>         0.0797
     39 H13        -0.7413    4.0276    0.3699 H         1 <0>         0.0789
     40 H14        -2.2418    3.7249   -0.5442 H         1 <0>         0.1239
@<TRIPOS>BOND
     1    1    6 ar
     2    1    2 ar
     3    1   27 1
     4    2    3 ar
     5    2   28 1
     6    3   26 1
     7    3    4 ar
     8    4    5 ar
     9    4   23 1
    10    5    6 ar
    11    5   29 1
    12    6    7 1
    13    7    8 am
    14    7   30 1
    15    8    9 2
    16    8   10 am
    17   10   11 am
    18   10   31 1
    19   11   12 2
    20   11   13 1
    21   13   14 1
    22   13   32 1
    23   13   33 1
    24   14   15 1
    25   15   20 ar
    26   15   16 ar
    27   16   17 ar
    28   16   34 1
    29   17   18 ar
    30   17   22 1
    31   18   19 ar
    32   18   35 1
    33   19   20 ar
    34   19   21 1
    35   20   36 1
    36   23   24 1
    37   24   25 1
    38   24   37 1
    39   24   38 1
    40   25   26 1
    41   25   39 1
    42   25   40 1
@<TRIPOS>MOLECULE
ZINC22509172
   51    53     0     0     0
SMALL
USER_CHARGES
2-tert-butyl-N'-(4,6-dimethylpyrimidin-2-yl)-4,5-dimethyl-thieno[4,5-e]pyrimidine-6-carbohydrazide
@<TRIPOS>ATOM
      1 C1          1.7019   -8.8018    0.2440 C.3       1 <0>        -0.1106
      2 C2          3.1599   -8.4213    0.2220 C.ar      1 <0>         0.2277
      3 C3          4.1408   -9.3975    0.2992 C.ar      1 <0>        -0.2911
      4 C4          5.4698   -9.0047    0.2754 C.ar      1 <0>         0.2307
      5 N1          5.7608   -7.7178    0.1802 N.ar      1 <0>        -0.5697
      6 C5          4.7988   -6.8096    0.1082 C.ar      1 <0>         0.5799
      7 N2          3.5190   -7.1513    0.1335 N.ar      1 <0>        -0.5889
      8 N3          5.1390   -5.4716    0.0099 N.pl3     1 <0>        -0.4998
      9 N4          4.1352   -4.4974   -0.0673 N.am      1 <0>        -0.5103
     10 C6          4.4664   -3.1945   -0.1630 C.2       1 <0>         0.6086
     11 O1          5.6371   -2.8644   -0.1825 O.2       1 <0>        -0.5224
     12 C7          3.4132   -2.1723   -0.2439 C.2       1 <0>        -0.2130
     13 C8          3.5487   -0.8233   -0.3440 C.2       1 <0>         0.0158
     14 C9          2.4066   -0.0091   -0.4093 C.ar      1 <0>        -0.2195
     15 C10         2.3137    1.4010   -0.5149 C.ar      1 <0>         0.2601
     16 N5          1.1278    1.9670   -0.5618 N.ar      1 <0>        -0.5218
     17 C11         0.0065    1.2682   -0.5143 C.ar      1 <0>         0.3739
     18 N6          0.0207   -0.0470   -0.4162 N.ar      1 <0>        -0.4808
     19 C12         1.1641   -0.6945   -0.3633 C.ar      1 <0>         0.1405
     20 S1          1.6428   -2.3978   -0.2344 S.3       1 <0>         0.1386
     21 C13        -1.3154    1.9890   -0.5799 C.3       1 <0>         0.0018
     22 C14        -2.4553    0.9706   -0.5142 C.3       1 <0>        -0.1341
     23 C15        -1.4276    2.9568    0.5998 C.3       1 <0>        -0.1391
     24 C16        -1.4053    2.7712   -1.8917 C.3       1 <0>        -0.1391
     25 C17         3.5618    2.2435   -0.5731 C.3       1 <0>        -0.1277
     26 C18         4.9216   -0.2031   -0.3841 C.3       1 <0>        -0.1461
     27 C19         6.5700  -10.0314    0.3563 C.3       1 <0>        -0.1127
     28 H1          1.6094   -9.8952    0.3209 H         1 <0>         0.0826
     29 H2          1.2190   -8.4572   -0.6823 H         1 <0>         0.0862
     30 H3          1.2130   -8.3307    1.1095 H         1 <0>         0.0863
     31 H4          3.8753  -10.4415    0.3767 H         1 <0>         0.1457
     32 H5          6.1976   -5.1732   -0.0076 H         1 <0>         0.4778
     33 H6          3.0766   -4.7958   -0.0498 H         1 <0>         0.4577
     34 H7         -3.4202    1.4967   -0.5621 H         1 <0>         0.0645
     35 H8         -2.3907    0.4083    0.4290 H         1 <0>         0.0632
     36 H9         -2.3746    0.2747   -1.3623 H         1 <0>         0.0631
     37 H10        -2.3924    3.4829    0.5519 H         1 <0>         0.0721
     38 H11        -0.6080    3.6889    0.5527 H         1 <0>         0.0696
     39 H12        -1.3630    2.3943    1.5429 H         1 <0>         0.0555
     40 H13        -2.3702    3.2973   -1.9395 H         1 <0>         0.0721
     41 H14        -1.3247    2.0753   -2.7398 H         1 <0>         0.0554
     42 H15        -0.5857    3.5034   -1.9389 H         1 <0>         0.0697
     43 H16         3.2843    3.3049   -0.6534 H         1 <0>         0.0932
     44 H17         4.1594    1.9534   -1.4499 H         1 <0>         0.1016
     45 H18         4.1527    2.0871    0.3414 H         1 <0>         0.1016
     46 H19         4.8279    0.8898   -0.4661 H         1 <0>         0.0949
     47 H20         5.4735   -0.5901   -1.2534 H         1 <0>         0.0884
     48 H21         5.4654   -0.4564    0.5379 H         1 <0>         0.0884
     49 H22         7.5464   -9.5259    0.3227 H         1 <0>         0.0834
     50 H23         6.4870  -10.7255   -0.4930 H         1 <0>         0.0881
     51 H24         6.4796  -10.5922    1.2983 H         1 <0>         0.0880
@<TRIPOS>BOND
     1    1    2 1
     2    1   28 1
     3    1   29 1
     4    1   30 1
     5    2    7 ar
     6    2    3 ar
     7    3    4 ar
     8    3   31 1
     9    4    5 ar
    10    4   27 1
    11    5    6 ar
    12    6    7 ar
    13    6    8 1
    14    8    9 1
    15    8   32 1
    16    9   10 am
    17    9   33 1
    18   10   11 2
    19   10   12 1
    20   12   20 1
    21   12   13 2
    22   13   14 1
    23   13   26 1
    24   14   19 ar
    25   14   15 ar
    26   15   16 ar
    27   15   25 1
    28   16   17 ar
    29   17   18 ar
    30   17   21 1
    31   18   19 ar
    32   19   20 1
    33   21   22 1
    34   21   23 1
    35   21   24 1
    36   22   34 1
    37   22   35 1
    38   22   36 1
    39   23   37 1
    40   23   38 1
    41   23   39 1
    42   24   40 1
    43   24   41 1
    44   24   42 1
    45   25   43 1
    46   25   44 1
    47   25   45 1
    48   26   46 1
    49   26   47 1
    50   26   48 1
    51   27   49 1
    52   27   50 1
    53   27   51 1
@<TRIPOS>MOLECULE
ZINC41179142
   58    60     0     0     0
SMALL
USER_CHARGES

@<TRIPOS>ATOM
      1 C1          1.0553    1.4402    0.8474 C.3       1 <0>        -0.0890
      2 C2          1.0758   -0.0642    0.7612 C.2       1 <0>         0.0229
      3 C3          1.1294   -0.8030   -0.3718 C.2       1 <0>        -0.1772
      4 C4          1.1286   -2.1518    0.0558 C.2       1 <0>        -0.0072
      5 N1          1.0764   -2.1378    1.3728 N.2       1 <0>        -0.2607
      6 N2          1.0502   -0.9265    1.8001 N.pl3     1 <0>        -0.3807
      7 H1          1.0145   -0.6685    2.7344 H         1 <0>         0.4460
      8 C5          1.1763   -3.3482   -0.8092 C.2       1 <0>         0.6066
      9 O1          1.3413   -3.2257   -2.0075 O.2       1 <0>        -0.5281
     10 N3          1.0370   -4.5756   -0.2702 N.am      1 <0>        -0.6010
     11 C6          0.6826   -4.7341    1.1473 C.3       1 <0>         0.0721
     12 C7         -0.5754   -5.6061    1.2433 C.3       1 <0>         0.1171
     13 N4         -0.3762   -6.8098    0.4241 N.am      1 <0>        -0.6305
     14 C8         -0.0217   -6.6513   -0.9933 C.3       1 <0>         0.0985
     15 C9          1.2308   -5.7793   -1.0907 C.3       1 <0>         0.0980
     16 C10        -0.5155   -8.0372    0.9632 C.2       1 <0>         0.7137
     17 O2         -0.9091   -8.1576    2.1072 O.2       1 <0>        -0.5792
     18 N5         -0.2184   -9.1311    0.2341 N.am      1 <0>        -0.7405
     19 C11        -0.2206  -10.4539    0.8638 C.3       1 <0>         0.2351
     20 C12         0.8216  -10.4874    1.9835 C.3       1 <0>        -0.1562
     21 C13        -1.6058  -10.7385    1.4478 C.3       1 <0>        -0.1658
     22 C14         0.1152  -11.5012   -0.1664 C.ar      1 <0>        -0.0814
     23 C15         0.8468  -11.1559   -1.2889 C.ar      1 <0>        -0.1211
     24 C16         1.1591  -12.1113   -2.2391 C.ar      1 <0>        -0.1103
     25 C17         0.7418  -13.4161   -2.0732 C.ar      1 <0>        -0.1080
     26 C18         0.0037  -13.7708   -0.9436 C.ar      1 <0>        -0.0442
     27 C19        -0.3029  -12.8034    0.0144 C.ar      1 <0>        -0.0960
     28 C20        -0.4466  -15.1666   -0.7594 C.2       1 <0>        -0.0944
     29 C21         0.0222  -15.8865    0.2501 C.2       1 <0>        -0.1770
     30 C22        -1.4386  -15.7712   -1.7194 C.3       1 <0>        -0.1162
     31 H2          2.0773    1.8149    0.9039 H         1 <0>         0.0820
     32 H3          0.5672    1.8482   -0.0377 H         1 <0>         0.0892
     33 H4          0.5065    1.7456    1.7382 H         1 <0>         0.0730
     34 H5          1.1649   -0.4394   -1.3882 H         1 <0>         0.1643
     35 H6          1.5035   -5.2166    1.6778 H         1 <0>         0.0725
     36 H7          0.4844   -3.7564    1.5864 H         1 <0>         0.1395
     37 H8         -0.7429   -5.8935    2.2813 H         1 <0>         0.1073
     38 H9         -1.4357   -5.0492    0.8720 H         1 <0>         0.0686
     39 H10         0.1764   -7.6290   -1.4325 H         1 <0>         0.0866
     40 H11        -0.8426   -6.1688   -1.5239 H         1 <0>         0.0784
     41 H12         1.3946   -5.4916   -2.1292 H         1 <0>         0.1078
     42 H13         2.0916   -6.3379   -0.7232 H         1 <0>         0.0753
     43 H14        -0.0033   -9.0426   -0.7076 H         1 <0>         0.3940
     44 H15         0.5788   -9.7298    2.7286 H         1 <0>         0.0795
     45 H16         0.8200  -11.4715    2.4520 H         1 <0>         0.0660
     46 H17         1.8085  -10.2846    1.5674 H         1 <0>         0.0555
     47 H18        -2.3483  -10.7147    0.6501 H         1 <0>         0.0549
     48 H19        -1.6074  -11.7227    1.9163 H         1 <0>         0.0640
     49 H20        -1.8486   -9.9810    2.1929 H         1 <0>         0.0909
     50 H21         1.1752  -10.1359   -1.4238 H         1 <0>         0.1182
     51 H22         1.7306  -11.8354   -3.1131 H         1 <0>         0.1263
     52 H23         0.9856  -14.1610   -2.8162 H         1 <0>         0.1244
     53 H24        -0.8701  -13.0726    0.8931 H         1 <0>         0.1286
     54 H25        -0.3068  -16.9064    0.3847 H         1 <0>         0.1055
     55 H26         0.7331  -15.4532    0.9381 H         1 <0>         0.1001
     56 H27        -1.7068  -15.0345   -2.4766 H         1 <0>         0.0630
     57 H28        -0.9937  -16.6419   -2.2011 H         1 <0>         0.0692
     58 H29        -2.3327  -16.0745   -1.1747 H         1 <0>         0.0701
@<TRIPOS>BOND
     1    1    2 1
     2    1   31 1
     3    1   32 1
     4    1   33 1
     5    2    6 1
     6    2    3 2
     7    3    4 1
     8    3   34 1
     9    4    5 2
    10    4    8 1
    11    5    6 1
    12    6    7 1
    13    8    9 2
    14    8   10 am
    15   10   15 1
    16   10   11 1
    17   11   12 1
    18   11   35 1
    19   11   36 1
    20   12   13 1
    21   12   37 1
    22   12   38 1
    23   13   14 1
    24   13   16 am
    25   14   15 1
    26   14   39 1
    27   14   40 1
    28   15   41 1
    29   15   42 1
    30   16   17 2
    31   16   18 am
    32   18   19 1
    33   18   43 1
    34   19   20 1
    35   19   21 1
    36   19   22 1
    37   20   44 1
    38   20   45 1
    39   20   46 1
    40   21   47 1
    41   21   48 1
    42   21   49 1
    43   22   27 ar
    44   22   23 ar
    45   23   24 ar
    46   23   50 1
    47   24   25 ar
    48   24   51 1
    49   25   26 ar
    50   25   52 1
    51   26   27 ar
    52   26   28 1
    53   27   53 1
    54   28   29 2
    55   28   30 1
    56   29   54 1
    57   29   55 1
    58   30   56 1
    59   30   57 1
    60   30   58 1
@<TRIPOS>MOLECULE
ZINC47509616
   45    49     0     0     0
SMALL
USER_CHARGES

@<TRIPOS>ATOM
      1 C1         -0.0167    1.3790    0.0096 C.ar      1 <0>        -0.1066
      2 C2          1.1687    2.0919    0.0021 C.ar      1 <0>        -0.1219
      3 C3          2.3774    1.4259   -0.0129 C.ar      1 <0>        -0.0874
      4 C4          2.4022    0.0327   -0.0206 C.ar      1 <0>        -0.0242
      5 C5          1.2051   -0.6804   -0.0130 C.ar      1 <0>        -0.0988
      6 C6          0.0021   -0.0041    0.0020 C.ar      1 <0>        -0.1193
      7 C7          3.6987   -0.6888   -0.0373 C.2       1 <0>         0.1416
      8 C8          3.9722   -1.9137    0.6029 C.2       1 <0>        -0.2395
      9 C9          5.2593   -2.2361    0.3500 C.2       1 <0>         0.0836
     10 N1          5.7905   -1.2538   -0.4239 N.pl3     1 <0>        -0.3174
     11 N2          4.7925   -0.2991   -0.6577 N.2       1 <0>        -0.2712
     12 C10         7.1045   -1.2069   -0.9079 C.ar      1 <0>         0.1567
     13 C11         7.9932   -2.2310   -0.6085 C.ar      1 <0>        -0.1398
     14 C12         9.2879   -2.1818   -1.0870 C.ar      1 <0>        -0.0917
     15 C13         9.6996   -1.1140   -1.8632 C.ar      1 <0>        -0.1264
     16 C14         8.8171   -0.0924   -2.1627 C.ar      1 <0>        -0.0944
     17 C15         7.5192   -0.1390   -1.6926 C.ar      1 <0>        -0.1178
     18 C16         3.0008   -2.7210    1.4250 C.3       1 <0>         0.2054
     19 N3          2.1276   -3.4891    0.5341 N.pl3     1 <0>        -0.6897
     20 C17         1.1484   -4.3107    1.0644 C.ar      1 <0>         0.5057
     21 C18         0.3020   -5.0547    0.2250 C.ar      1 <0>        -0.1095
     22 C19        -0.6731   -5.8717    0.8218 C.ar      1 <0>         0.3012
     23 N4         -1.3465   -6.4730   -0.2112 N.pl3     1 <0>        -0.5798
     24 C20        -0.7913   -6.0290   -1.3743 C.2       1 <0>         0.2524
     25 N5          0.1756   -5.1970   -1.1163 N.2       1 <0>        -0.4630
     26 H1         -2.0825   -7.0995   -0.1291 H         1 <0>         0.4315
     27 N6         -0.7594   -5.9113    2.1474 N.ar      1 <0>        -0.5625
     28 C21         0.0556   -5.1965    2.8944 C.ar      1 <0>         0.3662
     29 N7          0.9902   -4.4187    2.3796 N.ar      1 <0>        -0.5859
     30 H2         -0.9603    1.9042    0.0260 H         1 <0>         0.1245
     31 H3          1.1482    3.1717    0.0077 H         1 <0>         0.1268
     32 H4          3.3023    1.9835   -0.0191 H         1 <0>         0.1260
     33 H5          1.2186   -1.7603   -0.0193 H         1 <0>         0.1347
     34 H6         -0.9264   -0.5558    0.0079 H         1 <0>         0.1231
     35 H7          5.7747   -3.1179    0.7010 H         1 <0>         0.1835
     36 H8          7.6725   -3.0649   -0.0018 H         1 <0>         0.1305
     37 H9          9.9795   -2.9780   -0.8545 H         1 <0>         0.1346
     38 H10        10.7126   -1.0776   -2.2359 H         1 <0>         0.1305
     39 H11         9.1418    0.7407   -2.7685 H         1 <0>         0.1337
     40 H12         6.8290    0.6568   -1.9309 H         1 <0>         0.1380
     41 H13         3.5518   -3.4041    2.0714 H         1 <0>         0.0819
     42 H14         2.3968   -2.0502    2.0361 H         1 <0>         0.0850
     43 H15         2.2359   -3.4219   -0.4275 H         1 <0>         0.4186
     44 H16        -1.1071   -6.3243   -2.3640 H         1 <0>         0.2259
     45 H17        -0.0415   -5.2513    3.9686 H         1 <0>         0.2049
@<TRIPOS>BOND
     1    1    6 ar
     2    1    2 ar
     3    1   30 1
     4    2    3 ar
     5    2   31 1
     6    3    4 ar
     7    3   32 1
     8    4    5 ar
     9    4    7 1
    10    5    6 ar
    11    5   33 1
    12    6   34 1
    13    7   11 2
    14    7    8 1
    15    8    9 2
    16    8   18 1
    17    9   10 1
    18    9   35 1
    19   10   11 1
    20   10   12 1
    21   12   17 ar
    22   12   13 ar
    23   13   14 ar
    24   13   36 1
    25   14   15 ar
    26   14   37 1
    27   15   16 ar
    28   15   38 1
    29   16   17 ar
    30   16   39 1
    31   17   40 1
    32   18   41 1
    33   18   42 1
    34   18   19 1
    35   19   43 1
    36   19   20 1
    37   20   21 ar
    38   20   29 ar
    39   21   25 1
    40   21   22 ar
    41   22   23 1
    42   22   27 ar
    43   23   24 1
    44   23   26 1
    45   24   25 2
    46   24   44 1
    47   27   28 ar
    48   28   45 1
    49   28   29 ar
@<TRIPOS>MOLECULE
ZINC66264903
   48    50     0     0     0
SMALL
USER_CHARGES

@<TRIPOS>ATOM
      1 C1          1.2008    1.2359   -0.1727 C.3       1 <0>        -0.1161
      2 C2          0.5725   -0.1311   -0.0849 C.ar      1 <0>        -0.0663
      3 C3         -0.0333   -0.6856   -1.1977 C.ar      1 <0>        -0.1331
      4 C4         -0.6113   -1.9393   -1.1211 C.ar      1 <0>        -0.0981
      5 C5         -0.5854   -2.6419    0.0679 C.ar      1 <0>        -0.1320
      6 C6          0.0224   -2.0882    1.1867 C.ar      1 <0>         0.1622
      7 C7          0.6071   -0.8310    1.1050 C.ar      1 <0>        -0.1167
      8 C8          1.2732   -0.2287    2.3153 C.3       1 <0>        -0.1167
      9 N1          0.0504   -2.7974    2.3927 N.am      1 <0>        -0.6718
     10 C9         -0.0340   -4.1425    2.3855 C.2       1 <0>         0.6957
     11 O1         -0.0314   -4.7459    1.3305 O.2       1 <0>        -0.5045
     12 N2         -0.1214   -4.8184    3.5483 N.am      1 <0>        -0.6846
     13 C10        -0.2058   -6.1635    3.5411 C.2       1 <0>         0.5106
     14 O2         -0.2031   -6.7655    2.4887 O.2       1 <0>        -0.4466
     15 C11        -0.3034   -6.9193    4.8412 C.3       1 <0>         0.0986
     16 N3         -0.3832   -8.3560    4.5660 N.am      1 <0>        -0.3301
     17 C12         0.7538   -9.0731    4.4936 C.2       1 <0>         0.4844
     18 O3          1.8345   -8.5298    4.6560 O.2       1 <0>        -0.5238
     19 C13         0.6868  -10.4590    4.2287 C.2       1 <0>        -0.1750
     20 C14        -0.5453  -11.0170    4.0556 C.2       1 <0>        -0.0583
     21 C15        -1.6798  -10.1774    4.1513 C.2       1 <0>         0.1061
     22 N4         -1.5359   -8.8981    4.4056 N.2       1 <0>        -0.2005
     23 C16        -3.0374  -10.7464    3.9691 C.ar      1 <0>        -0.0692
     24 C17        -3.1971  -12.1063    3.7100 C.ar      1 <0>        -0.0716
     25 C18        -4.4624  -12.6306    3.5419 C.ar      1 <0>        -0.1286
     26 C19        -5.5728  -11.8096    3.6294 C.ar      1 <0>        -0.0770
     27 C20        -5.4228  -10.4595    3.8862 C.ar      1 <0>        -0.1564
     28 C21        -4.1604   -9.9231    4.0624 C.ar      1 <0>         0.1327
     29 F1         -4.0144   -8.6047    4.3188 F         1 <0>        -0.1194
     30 H1          2.2444    1.1375   -0.4715 H         1 <0>         0.0720
     31 H2          0.6665    1.8347   -0.9103 H         1 <0>         0.0686
     32 H3          1.1459    1.7242    0.8003 H         1 <0>         0.0689
     33 H4         -0.0552   -0.1381   -2.1283 H         1 <0>         0.1238
     34 H5         -1.0839   -2.3695   -1.9918 H         1 <0>         0.1264
     35 H6         -1.0376   -3.6209    0.1272 H         1 <0>         0.1451
     36 H7          0.5418    0.3447    2.8849 H         1 <0>         0.0718
     37 H8          1.6781   -1.0243    2.9407 H         1 <0>         0.0611
     38 H9          2.0814    0.4291    1.9956 H         1 <0>         0.0757
     39 H10         0.1305   -2.3209    3.2338 H         1 <0>         0.4095
     40 H11        -0.1235   -4.3368    4.3902 H         1 <0>         0.4138
     41 H12         0.5786   -6.7140    5.4479 H         1 <0>         0.1449
     42 H13        -1.1966   -6.6023    5.3796 H         1 <0>         0.1415
     43 H14         1.5833  -11.0578    4.1650 H         1 <0>         0.1709
     44 H15        -0.6522  -12.0719    3.8506 H         1 <0>         0.1585
     45 H16        -2.3319  -12.7489    3.6405 H         1 <0>         0.1389
     46 H17        -4.5864  -13.6845    3.3410 H         1 <0>         0.1371
     47 H18        -6.5607  -12.2252    3.4963 H         1 <0>         0.1371
     48 H19        -6.2931   -9.8234    3.9532 H         1 <0>         0.1405
@<TRIPOS>BOND
     1    1    2 1
     2    1   30 1
     3    1   31 1
     4    1   32 1
     5    2    7 ar
     6    2    3 ar
     7    3    4 ar
     8    3   33 1
     9    4    5 ar
    10    4   34 1
    11    5    6 ar
    12    5   35 1
    13    6    7 ar
    14    6    9 1
    15    7    8 1
    16    8   36 1
    17    8   37 1
    18    8   38 1
    19    9   10 am
    20    9   39 1
    21   10   11 2
    22   10   12 am
    23   12   13 am
    24   12   40 1
    25   13   14 2
    26   13   15 1
    27   15   16 1
    28   15   41 1
    29   15   42 1
    30   16   22 1
    31   16   17 am
    32   17   18 2
    33   17   19 1
    34   19   20 2
    35   19   43 1
    36   20   21 1
    37   20   44 1
    38   21   22 2
    39   21   23 1
    40   23   28 ar
    41   23   24 ar
    42   24   25 ar
    43   24   45 1
    44   25   26 ar
    45   25   46 1
    46   26   27 ar
    47   26   47 1
    48   27   28 ar
    49   27   48 1
    50   28   29 1
@<TRIPOS>MOLECULE
ZINC14479264
   47    50     0     0     0
SMALL
USER_CHARGES
(3aR,4S,9bS)-4-(3,4-dimethoxyphenyl)-9-nitro-3a,4,5,9b-tetrahydro-3H-cyclopenta[c]quinolin-6-ol
@<TRIPOS>ATOM
      1 C1          2.3614   -0.2048   -0.5455 C.3       1 <0>         0.0236
      2 O1          2.3660    1.1235   -0.0184 O.3       1 <0>        -0.3069
      3 C2          1.1781    1.7854   -0.0021 C.ar      1 <0>         0.0988
      4 C3          0.0336    1.1698   -0.4829 C.ar      1 <0>        -0.1705
      5 C4         -1.1720    1.8462   -0.4709 C.ar      1 <0>        -0.1201
      6 C5         -1.2413    3.1330    0.0298 C.ar      1 <0>        -0.0833
      7 C6         -0.1032    3.7529    0.5110 C.ar      1 <0>        -0.1530
      8 C7          1.1094    3.0825    0.4970 C.ar      1 <0>         0.1021
      9 O2          2.2300    3.6911    0.9696 O.3       1 <0>        -0.3058
     10 C8          2.0845    5.0230    1.4665 C.3       1 <0>         0.0223
     11 C9         -2.5592    3.8636    0.0458 C.3       1 <0>         0.1921
     12 H1         -2.4089    4.9104   -0.2569 H         1 <0>         0.1002
     13 C10        -3.1736    3.7772    1.4449 C.3       1 <0>        -0.0990
     14 H2         -4.1188    4.3397    1.4308 H         1 <0>         0.1036
     15 C11        -2.0962    4.2412    2.4656 C.3       1 <0>        -0.0803
     16 C12        -1.2444    3.0039    2.6692 C.2       1 <0>        -0.1648
     17 C13        -1.9091    1.9275    2.3306 C.2       1 <0>        -0.1304
     18 C14        -3.2940    2.2916    1.8468 C.3       1 <0>        -0.0121
     19 H3         -4.0695    2.1063    2.6046 H         1 <0>         0.1193
     20 C15        -3.6891    1.4354    0.6799 C.ar      1 <0>        -0.0394
     21 C16        -3.9974    0.1021    0.9246 C.ar      1 <0>        -0.0499
     22 C17        -4.3641   -0.7375   -0.1060 C.ar      1 <0>        -0.0543
     23 C18        -4.4286   -0.2572   -1.4016 C.ar      1 <0>        -0.1363
     24 C19        -4.1255    1.0672   -1.6569 C.ar      1 <0>         0.1444
     25 C20        -3.7557    1.9204   -0.6122 C.ar      1 <0>         0.1412
     26 N1         -3.4679    3.2518   -0.9242 N.pl3     1 <0>        -0.7567
     27 O3         -4.1874    1.5427   -2.9297 O.3       1 <0>        -0.4886
     28 N2         -3.9309   -0.4224    2.3070 N.pl3     1 <0>         0.0361
     29 O4         -4.1996   -1.5894    2.5292 O.2       1 <0>        -0.1772
     30 O5         -3.6075    0.3130    3.2225 O.3       1 <0>        -0.1528
     31 H4          3.3786   -0.6209   -0.4998 H         1 <0>         0.1031
     32 H5          2.0207   -0.1831   -1.5912 H         1 <0>         0.0544
     33 H6          1.6813   -0.8327    0.0488 H         1 <0>         0.0543
     34 H7          0.0843    0.1633   -0.8711 H         1 <0>         0.1289
     35 H8         -2.0626    1.3667   -0.8497 H         1 <0>         0.1337
     36 H9         -0.1593    4.7596    0.8981 H         1 <0>         0.1365
     37 H10         3.0601    5.3930    1.8147 H         1 <0>         0.1020
     38 H11         1.3711    5.0261    2.3038 H         1 <0>         0.0569
     39 H12         1.7103    5.6751    0.6635 H         1 <0>         0.0540
     40 H13        -1.5234    5.0779    2.0392 H         1 <0>         0.0710
     41 H14        -2.5873    4.5684    3.3939 H         1 <0>         0.0827
     42 H15        -0.2124    2.9190    3.0403 H         1 <0>         0.1261
     43 H16        -1.4371    0.9381    2.4219 H         1 <0>         0.1171
     44 H17        -4.6007   -1.7712    0.0985 H         1 <0>         0.1570
     45 H18        -4.7148   -0.9137   -2.2100 H         1 <0>         0.1526
     46 H19        -3.8393    3.8395   -1.7766 H         1 <0>         0.4388
     47 H20        -3.9467    2.5961   -3.1356 H         1 <0>         0.4285
@<TRIPOS>BOND
     1    1    2 1
     2    1   31 1
     3    1   32 1
     4    1   33 1
     5    2    3 1
     6    3    8 ar
     7    3    4 ar
     8    4    5 ar
     9    4   34 1
    10    5    6 ar
    11    5   35 1
    12    6    7 ar
    13    6   11 1
    14    7    8 ar
    15    7   36 1
    16    8    9 1
    17    9   10 1
    18   10   37 1
    19   10   38 1
    20   10   39 1
    21   11   12 1
    22   11   26 1
    23   11   13 1
    24   13   14 1
    25   13   18 1
    26   13   15 1
    27   15   16 1
    28   15   40 1
    29   15   41 1
    30   16   17 2
    31   16   42 1
    32   17   18 1
    33   17   43 1
    34   18   19 1
    35   18   20 1
    36   20   25 ar
    37   20   21 ar
    38   21   22 ar
    39   21   28 1
    40   22   23 ar
    41   22   44 1
    42   23   24 ar
    43   23   45 1
    44   24   25 ar
    45   24   27 1
    46   25   26 1
    47   26   46 1
    48   27   47 1
    49   28   29 2
    50   28   30 1
@<TRIPOS>MOLECULE
ZINC08568089
   49    52     0     0     0
SMALL
USER_CHARGES

@<TRIPOS>ATOM
      1 C1          0.2460   -3.7410    1.7844 C.3       1 <0>        -0.1515
      2 C2          0.3724   -2.5047    0.8919 C.3       1 <0>        -0.1226
      3 C3          0.9443   -2.9131   -0.4671 C.3       1 <0>        -0.1110
      4 C4          1.1107   -1.6708   -1.3446 C.3       1 <0>        -0.0525
      5 C5          1.7970   -2.0524   -2.6308 C.2       1 <0>         0.1341
      6 C6          1.1690   -2.3471   -3.8330 C.2       1 <0>        -0.2520
      7 C7          2.1368   -2.6427   -4.7549 C.2       1 <0>         0.2882
      8 N1          3.3261   -2.5351   -4.1421 N.pl3     1 <0>        -0.4403
      9 H1          4.1937   -2.6873   -4.5485 H         1 <0>         0.4495
     10 N2          3.0922   -2.1585   -2.8103 N.2       1 <0>        -0.2542
     11 O1          1.8465   -2.9738   -6.0373 O.3       1 <0>        -0.2272
     12 C8          0.5914   -2.7533   -6.4785 C.2       1 <0>         0.4561
     13 C9         -0.4512   -2.4659   -5.6642 C.2       1 <0>        -0.2493
     14 C10        -0.2948   -2.3691   -4.1715 C.3       1 <0>         0.1259
     15 C11        -0.9965   -3.4913   -3.4764 C.ar      1 <0>        -0.1301
     16 C12        -0.8259   -4.8575   -3.5413 C.ar      1 <0>        -0.0447
     17 C13        -1.6611   -5.6362   -2.7476 C.ar      1 <0>        -0.1458
     18 C14        -2.6163   -5.0641   -1.9323 C.ar      1 <0>        -0.0802
     19 C15        -2.7947   -3.6913   -1.8625 C.ar      1 <0>        -0.1391
     20 C16        -1.9632   -2.8981   -2.6546 C.ar      1 <0>         0.1555
     21 N3         -1.9228   -1.5207   -2.7815 N.am      1 <0>        -0.5473
     22 C17        -0.9732   -1.1204   -3.6532 C.2       1 <0>         0.5398
     23 O2         -0.7132    0.0233   -3.9623 O.2       1 <0>        -0.4752
     24 C18        -2.8065   -0.6052   -2.0554 C.3       1 <0>         0.1370
     25 C19        -2.1341   -0.1629   -0.7813 C.2       1 <0>        -0.1912
     26 C20        -1.9765    1.1136   -0.5328 C.2       1 <0>        -0.1553
     27 C21        -1.7430   -2.2474   -6.2421 C.1       1 <0>         0.2663
     28 N4         -2.7679   -2.0741   -6.7005 N.1       1 <0>        -0.4253
     29 N5          0.3579   -2.8240   -7.8294 N.pl3     1 <0>        -0.8236
     30 H2         -0.4834   -4.4270    1.3535 H         1 <0>         0.0550
     31 H3          1.2136   -4.2376    1.8564 H         1 <0>         0.0542
     32 H4         -0.0825   -3.4392    2.7789 H         1 <0>         0.0539
     33 H5         -0.6107   -2.0553    0.7523 H         1 <0>         0.0611
     34 H6          1.0383   -1.7824    1.3641 H         1 <0>         0.0625
     35 H7          1.9141   -3.3899   -0.3248 H         1 <0>         0.0677
     36 H8          0.2634   -3.6122   -0.9526 H         1 <0>         0.0700
     37 H9          0.1304   -1.2492   -1.5671 H         1 <0>         0.0856
     38 H10         1.7130   -0.9313   -0.8169 H         1 <0>         0.0857
     39 H11        -0.0777   -5.3031   -4.1801 H         1 <0>         0.1302
     40 H12        -1.5597   -6.7112   -2.7694 H         1 <0>         0.1252
     41 H13        -3.2438   -5.7052   -1.3309 H         1 <0>         0.1265
     42 H14        -3.5460   -3.2537   -1.2218 H         1 <0>         0.1334
     43 H15        -3.0169    0.2656   -2.6764 H         1 <0>         0.0927
     44 H16        -3.7398   -1.1146   -1.8157 H         1 <0>         0.0955
     45 H17        -1.7821   -0.8983   -0.0730 H         1 <0>         0.1184
     46 H18        -2.4004    1.8499   -1.1997 H         1 <0>         0.1000
     47 H19        -1.4228    1.4298    0.3388 H         1 <0>         0.1046
     48 H20         1.0857   -3.0278   -8.4374 H         1 <0>         0.4145
     49 H21        -0.5349   -2.6700   -8.1759 H         1 <0>         0.4297
@<TRIPOS>BOND
     1    1    2 1
     2    1   30 1
     3    1   31 1
     4    1   32 1
     5    2    3 1
     6    2   33 1
     7    2   34 1
     8    3    4 1
     9    3   35 1
    10    3   36 1
    11    4    5 1
    12    4   37 1
    13    4   38 1
    14    5   10 2
    15    5    6 1
    16    6   14 1
    17    6    7 2
    18    7    8 1
    19    7   11 1
    20    8    9 1
    21    8   10 1
    22   11   12 1
    23   12   13 2
    24   12   29 1
    25   13   14 1
    26   13   27 1
    27   14   22 1
    28   14   15 1
    29   15   20 ar
    30   15   16 ar
    31   16   17 ar
    32   16   39 1
    33   17   18 ar
    34   17   40 1
    35   18   19 ar
    36   18   41 1
    37   19   20 ar
    38   19   42 1
    39   20   21 1
    40   21   22 am
    41   21   24 1
    42   22   23 2
    43   24   25 1
    44   24   43 1
    45   24   44 1
    46   25   26 2
    47   25   45 1
    48   26   46 1
    49   26   47 1
    50   27   28 3
    51   29   48 1
    52   29   49 1
@<TRIPOS>MOLECULE
ZINC40166919
   41    43     0     0     0
SMALL
USER_CHARGES

@<TRIPOS>ATOM
      1 C1          4.8816   -5.7728   -2.7306 C.ar      1 <0>        -0.0942
      2 C2          3.7809   -4.9351   -2.7731 C.ar      1 <0>        -0.1143
      3 C3          3.7185   -3.8306   -1.9496 C.ar      1 <0>        -0.1169
      4 C4          4.7703   -3.5585   -1.0705 C.ar      1 <0>        -0.0111
      5 C5          5.8783   -4.4092   -1.0329 C.ar      1 <0>        -0.0649
      6 C6          5.9269   -5.5098   -1.8626 C.ar      1 <0>        -0.1198
      7 N1          4.7156   -2.4652   -0.2515 N.2       1 <0>        -0.1558
      8 N2          3.5913   -1.8655   -0.0506 N.2       1 <0>        -0.1410
      9 C7          2.4265   -2.5765   -0.0649 C.ar      1 <0>        -0.0351
     10 C8          1.2039   -1.9165   -0.2284 C.ar      1 <0>        -0.0367
     11 C9          0.0312   -2.6375   -0.2427 C.ar      1 <0>        -0.1322
     12 C10         0.0608   -4.0205   -0.0944 C.ar      1 <0>         0.1955
     13 C11         1.2745   -4.6808    0.0684 C.ar      1 <0>        -0.1459
     14 C12         2.4522   -3.9679    0.0781 C.ar      1 <0>        -0.0840
     15 N3         -1.1307   -4.7477   -0.1086 N.am      1 <0>        -0.6770
     16 C13        -2.2041   -4.2697   -0.7687 C.2       1 <0>         0.7096
     17 O1         -2.1034   -3.2651   -1.4462 O.2       1 <0>        -0.5577
     18 N4         -3.3891   -4.9052   -0.6779 N.am      1 <0>        -0.7348
     19 C14        -4.5559   -4.3856   -1.3954 C.3       1 <0>         0.1684
     20 H1         -4.5084   -3.2969   -1.4176 H         1 <0>         0.1390
     21 C15        -5.8483   -4.8264   -0.6577 C.3       1 <0>        -0.5855
     22 S1         -6.2541   -6.3128   -1.6684 S.o2      1 <0>         2.4294
     23 O2         -5.6338   -7.4762   -1.1383 O.2       1 <0>        -0.9243
     24 O3         -7.6220   -6.3111   -2.0534 O.2       1 <0>        -0.9232
     25 C16        -5.3317   -5.8934   -3.1364 C.2       1 <0>        -0.6294
     26 C17        -4.5459   -4.9079   -2.7961 C.2       1 <0>        -0.0768
     27 H2          4.9231   -6.6386   -3.3749 H         1 <0>         0.1300
     28 H3          2.9689   -5.1466   -3.4530 H         1 <0>         0.1283
     29 H4          2.8592   -3.1773   -1.9843 H         1 <0>         0.1317
     30 H5          6.6950   -4.2050   -0.3563 H         1 <0>         0.1388
     31 H6          6.7827   -6.1679   -1.8349 H         1 <0>         0.1345
     32 H7          1.1800   -0.8429   -0.3429 H         1 <0>         0.1436
     33 H8         -0.9131   -2.1288   -0.3689 H         1 <0>         0.1557
     34 H9          1.2931   -5.7545    0.1832 H         1 <0>         0.1345
     35 H10         3.3943   -4.4816    0.2005 H         1 <0>         0.1355
     36 H11        -1.1861   -5.5971    0.3566 H         1 <0>         0.4140
     37 H12        -3.4694   -5.7067   -0.1375 H         1 <0>         0.4087
     38 H13        -5.6461   -5.0912    0.3801 H         1 <0>         0.1586
     39 H14        -6.6284   -4.0685   -0.7296 H         1 <0>         0.1662
     40 H15        -5.4075   -6.3600   -4.1074 H         1 <0>         0.1920
     41 H16        -3.8868   -4.4687   -3.5303 H         1 <0>         0.1469
@<TRIPOS>BOND
     1    1    6 ar
     2    1    2 ar
     3    1   27 1
     4    2    3 ar
     5    2   28 1
     6    3    4 ar
     7    3   29 1
     8    4    5 ar
     9    4    7 1
    10    5    6 ar
    11    5   30 1
    12    6   31 1
    13    7    8 2
    14    8    9 1
    15    9   14 ar
    16    9   10 ar
    17   10   11 ar
    18   10   32 1
    19   11   12 ar
    20   11   33 1
    21   12   13 ar
    22   12   15 1
    23   13   14 ar
    24   13   34 1
    25   14   35 1
    26   15   16 am
    27   15   36 1
    28   16   17 2
    29   16   18 am
    30   18   19 1
    31   18   37 1
    32   19   20 1
    33   19   26 1
    34   19   21 1
    35   21   22 1
    36   21   38 1
    37   21   39 1
    38   22   23 2
    39   22   24 2
    40   22   25 1
    41   25   26 2
    42   25   40 1
    43   26   41 1
@<TRIPOS>MOLECULE
ZINC60421862
   43    45     0     0     0
SMALL
USER_CHARGES

@<TRIPOS>ATOM
      1 C1         -0.0184    1.5028    0.0103 C.3       1 <0>        -0.1203
      2 C2          0.0021   -0.0041    0.0020 C.ar      1 <0>        -0.0633
      3 C3          0.0057   -0.6862   -1.2016 C.ar      1 <0>        -0.1216
      4 C4          0.0249   -2.0657   -1.2161 C.ar      1 <0>        -0.0882
      5 C5          0.0405   -2.7729   -0.0132 C.ar      1 <0>        -0.0307
      6 C6          0.0368   -2.0788    1.1973 C.ar      1 <0>        -0.0655
      7 C7          0.0229   -0.6992    1.1980 C.ar      1 <0>        -0.1216
      8 C8          0.0606   -4.2516   -0.0214 C.2       1 <0>         0.1256
      9 N1          0.0717   -5.0871    1.0002 N.2       1 <0>        -0.4631
     10 C9          0.0887   -6.3915    0.7544 C.2       1 <0>         0.0325
     11 C10         0.0941   -6.8179   -0.5641 C.2       1 <0>        -0.2341
     12 S1          0.0681   -5.3657   -1.4144 S.3       1 <0>         0.1682
     13 C11         0.1020   -7.3585    1.8524 C.2       1 <0>         0.0643
     14 C12         0.0964   -6.9190    3.1566 C.2       1 <0>        -0.0042
     15 C13         0.0776   -5.5153    3.4390 C.1       1 <0>         0.2833
     16 N2          0.0627   -4.4017    3.6630 N.1       1 <0>        -0.4051
     17 C14         0.1099   -7.8953    4.2650 C.ar      1 <0>         0.4802
     18 N3          0.1330   -9.2015    4.0030 N.ar      1 <0>        -0.6341
     19 C15         0.1455  -10.0784    5.0011 C.ar      1 <0>         0.6373
     20 N4          0.1345   -9.6531    6.2609 N.ar      1 <0>        -0.6542
     21 C16         0.1115   -8.3502    6.5238 C.ar      1 <0>         0.6319
     22 N5          0.1045   -7.4706    5.5276 N.ar      1 <0>        -0.6235
     23 N6          0.0997   -7.9107    7.8323 N.pl3     1 <0>        -0.5785
     24 C17         0.1126   -8.8799    8.9307 C.3       1 <0>         0.0993
     25 C18         0.0743   -6.4749    8.1225 C.3       1 <0>         0.0983
     26 N7          0.1694  -11.4317    4.7301 N.pl3     1 <0>        -0.8057
     27 H1          1.0042    1.8801    0.0026 H         1 <0>         0.0753
     28 H2         -0.5455    1.8639   -0.8728 H         1 <0>         0.0699
     29 H3         -0.5286    1.8543    0.9071 H         1 <0>         0.0700
     30 H4         -0.0068   -0.1377   -2.1319 H         1 <0>         0.1314
     31 H5          0.0273   -2.5971   -2.1563 H         1 <0>         0.1269
     32 H6          0.0485   -2.6204    2.1317 H         1 <0>         0.1462
     33 H7          0.0241   -0.1608    2.1343 H         1 <0>         0.1305
     34 H8          0.1075   -7.8269   -0.9488 H         1 <0>         0.2093
     35 H9          0.1162   -8.4172    1.6394 H         1 <0>         0.1723
     36 H10         1.1433   -9.1028    9.2065 H         1 <0>         0.0560
     37 H11        -0.4113   -8.4619    9.7903 H         1 <0>         0.0728
     38 H12        -0.3847   -9.7962    8.6126 H         1 <0>         0.0823
     39 H13        -0.9595   -6.1364    8.1911 H         1 <0>         0.0568
     40 H14         0.5819   -6.2864    9.0685 H         1 <0>         0.0734
     41 H15         0.5816   -5.9338    7.3238 H         1 <0>         0.0834
     42 H16         0.1771  -11.7422    3.8112 H         1 <0>         0.4186
     43 H17         0.1786  -12.0721    5.4586 H         1 <0>         0.4176
@<TRIPOS>BOND
     1    1    2 1
     2    1   27 1
     3    1   28 1
     4    1   29 1
     5    2    7 ar
     6    2    3 ar
     7    3    4 ar
     8    3   30 1
     9    4    5 ar
    10    4   31 1
    11    5    6 ar
    12    5    8 1
    13    6    7 ar
    14    6   32 1
    15    7   33 1
    16    8   12 1
    17    8    9 2
    18    9   10 1
    19   10   11 2
    20   10   13 1
    21   11   12 1
    22   11   34 1
    23   13   14 2
    24   13   35 1
    25   14   15 1
    26   14   17 1
    27   15   16 3
    28   17   22 ar
    29   17   18 ar
    30   18   19 ar
    31   19   20 ar
    32   19   26 1
    33   20   21 ar
    34   21   22 ar
    35   21   23 1
    36   23   24 1
    37   23   25 1
    38   24   36 1
    39   24   37 1
    40   24   38 1
    41   25   39 1
    42   25   40 1
    43   25   41 1
    44   26   42 1
    45   26   43 1
@<TRIPOS>MOLECULE
ZINC66619857
   52    55     0     0     0
SMALL
USER_CHARGES

@<TRIPOS>ATOM
      1 C1         -2.6728    1.6906   -1.0356 C.3       1 <0>        -0.1035
      2 C2         -2.6772    0.1848   -0.9755 C.2       1 <0>         0.1349
      3 C3         -2.0800   -0.6676   -1.8606 C.2       1 <0>        -0.0946
      4 N1         -2.3125   -1.9293   -1.4596 N.2       1 <0>        -0.1994
      5 N2         -3.0163   -1.9167   -0.3815 N.2       1 <0>        -0.0545
      6 N3         -3.2675   -0.5820   -0.0330 N.pl3     1 <0>        -0.3087
      7 C4         -3.9937   -0.1306    1.0774 C.ar      1 <0>         0.1224
      8 C5         -3.6192    1.0424    1.7207 C.ar      1 <0>        -0.1106
      9 C6         -4.3323    1.4888    2.8131 C.ar      1 <0>        -0.0929
     10 C7         -5.4299    0.7622    3.2718 C.ar      1 <0>        -0.0264
     11 C8         -5.8036   -0.4144    2.6245 C.ar      1 <0>        -0.0946
     12 C9         -5.0904   -0.8538    1.5294 C.ar      1 <0>        -0.0899
     13 C10        -6.1986    1.2401    4.4472 C.ar      1 <0>        -0.0559
     14 C11        -5.8294    2.4190    5.0920 C.ar      1 <0>        -0.1058
     15 C12        -6.5484    2.8591    6.1848 C.ar      1 <0>        -0.1175
     16 C13        -7.6335    2.1321    6.6403 C.ar      1 <0>        -0.1121
     17 C14        -8.0042    0.9610    6.0044 C.ar      1 <0>        -0.1175
     18 C15        -7.2961    0.5147    4.9069 C.ar      1 <0>        -0.1057
     19 C16        -1.3104   -0.2704   -3.0547 C.2       1 <0>         0.6034
     20 O1         -1.2656    0.8981   -3.3882 O.2       1 <0>        -0.5022
     21 N4         -0.6570   -1.2026   -3.7762 N.am      1 <0>        -0.5881
     22 C17        -0.7986   -2.6301   -3.4583 C.3       1 <0>         0.0686
     23 C18         0.5965   -3.2336   -3.2682 C.3       1 <0>        -0.1344
     24 C19         1.4453   -2.9471   -4.5090 C.3       1 <0>        -0.1198
     25 C20         1.5938   -1.4347   -4.6895 C.3       1 <0>        -0.1219
     26 C21         0.2056   -0.8111   -4.8992 C.3       1 <0>         0.1285
     27 H1         -0.2235   -1.1737   -5.8333 H         1 <0>         0.0900
     28 C22         0.3257    0.6904   -4.9445 C.2       1 <0>         0.5363
     29 O2          0.7748    1.2918   -3.9918 O.2       1 <0>        -0.5220
     30 N5         -0.0659    1.3650   -6.0436 N.am      1 <0>        -0.8540
     31 H2         -1.8083    2.0733   -0.4933 H         1 <0>         0.0961
     32 H3         -2.6210    2.0125   -2.0757 H         1 <0>         0.1161
     33 H4         -3.5861    2.0750   -0.5814 H         1 <0>         0.0815
     34 H5         -2.7685    1.6048    1.3651 H         1 <0>         0.1396
     35 H6         -4.0405    2.4006    3.3131 H         1 <0>         0.1416
     36 H7         -6.6536   -0.9791    2.9780 H         1 <0>         0.1410
     37 H8         -5.3821   -1.7632    1.0250 H         1 <0>         0.1410
     38 H9         -4.9819    2.9870    4.7376 H         1 <0>         0.1269
     39 H10        -6.2632    3.7726    6.6853 H         1 <0>         0.1268
     40 H11        -8.1931    2.4800    7.4960 H         1 <0>         0.1252
     41 H12        -8.8520    0.3971    6.3645 H         1 <0>         0.1268
     42 H13        -7.5893   -0.3973    4.4082 H         1 <0>         0.1270
     43 H14        -1.3745   -2.7446   -2.5400 H         1 <0>         0.1471
     44 H15        -1.3080   -3.1380   -4.2773 H         1 <0>         0.0687
     45 H16         1.0695   -2.7881   -2.3931 H         1 <0>         0.0667
     46 H17         0.5106   -4.3110   -3.1270 H         1 <0>         0.0791
     47 H18         2.4307   -3.3968   -4.3867 H         1 <0>         0.0716
     48 H19         0.9592   -3.3717   -5.3874 H         1 <0>         0.0669
     49 H20         2.0574   -1.0061   -3.8010 H         1 <0>         0.0800
     50 H21         2.2178   -1.2317   -5.5599 H         1 <0>         0.0791
     51 H22        -0.4251    0.8840   -6.8055 H         1 <0>         0.3963
     52 H23         0.0114    2.3315   -6.0727 H         1 <0>         0.4029
@<TRIPOS>BOND
     1    1    2 1
     2    1   31 1
     3    1   32 1
     4    1   33 1
     5    2    6 1
     6    2    3 2
     7    3    4 1
     8    3   19 1
     9    4    5 2
    10    5    6 1
    11    6    7 1
    12    7   12 ar
    13    7    8 ar
    14    8    9 ar
    15    8   34 1
    16    9   10 ar
    17    9   35 1
    18   10   11 ar
    19   10   13 1
    20   11   12 ar
    21   11   36 1
    22   12   37 1
    23   13   18 ar
    24   13   14 ar
    25   14   15 ar
    26   14   38 1
    27   15   16 ar
    28   15   39 1
    29   16   17 ar
    30   16   40 1
    31   17   18 ar
    32   17   41 1
    33   18   42 1
    34   19   20 2
    35   19   21 am
    36   21   26 1
    37   21   22 1
    38   22   23 1
    39   22   43 1
    40   22   44 1
    41   23   24 1
    42   23   45 1
    43   23   46 1
    44   24   25 1
    45   24   47 1
    46   24   48 1
    47   25   26 1
    48   25   49 1
    49   25   50 1
    50   26   27 1
    51   26   28 1
    52   28   29 2
    53   28   30 am
    54   30   51 1
    55   30   52 1
@<TRIPOS>MOLECULE
ZINC08042047
   45    49     0     0     0
SMALL
USER_CHARGES
N-[3-[4-(4-oxo-2-oxa-5-azabicyclo[4.4.0]deca-7,9,11-trien-8-yl)thiazol-2-yl]phenyl]cyclopropanecarboxamide
@<TRIPOS>ATOM
      1 C1          4.4752   -5.7574   -5.5059 C.ar      1 <0>        -0.0982
      2 C2          4.4106   -4.4339   -5.1192 C.ar      1 <0>        -0.0837
      3 C3          5.3111   -3.5079   -5.6478 C.ar      1 <0>         0.0002
      4 C4          6.2811   -3.9266   -6.5582 C.ar      1 <0>        -0.0952
      5 C5          6.3411   -5.2587   -6.9361 C.ar      1 <0>         0.1486
      6 C6          5.4364   -6.1724   -6.4081 C.ar      1 <0>        -0.1235
      7 N1          7.3128   -5.6840   -7.8490 N.am      1 <0>        -0.6709
      8 C7          8.5260   -5.0972   -7.8640 C.2       1 <0>         0.5433
      9 O1          8.8090   -4.2679   -7.0253 O.2       1 <0>        -0.5153
     10 C8          9.5311   -5.4715   -8.9227 C.3       1 <0>        -0.1999
     11 C9         10.7763   -6.2394   -8.4747 C.3       1 <0>        -0.1501
     12 C10        10.8903   -4.7701   -8.8859 C.3       1 <0>        -0.1440
     13 C11         5.2409   -2.0884   -5.2391 C.2       1 <0>         0.1623
     14 N2          4.4086   -1.5001   -4.3947 N.2       1 <0>        -0.4905
     15 C12         4.4853   -0.2066   -4.1456 C.2       1 <0>         0.0999
     16 C13         5.4523    0.5419   -4.7650 C.2       1 <0>        -0.1936
     17 S1          6.2622   -0.7127   -5.7488 S.3       1 <0>         0.0411
     18 C14         3.5373    0.4308   -3.1987 C.ar      1 <0>        -0.0138
     19 C15         3.5589    1.8122   -3.0139 C.ar      1 <0>        -0.0935
     20 C16         2.6777    2.4075   -2.1331 C.ar      1 <0>        -0.1038
     21 C17         1.7698    1.6326   -1.4307 C.ar      1 <0>         0.0828
     22 C18         1.7442    0.2496   -1.6113 C.ar      1 <0>         0.0921
     23 C19         2.6249   -0.3513   -2.4924 C.ar      1 <0>        -0.0889
     24 N3          0.8185   -0.5189   -0.8907 N.am      1 <0>        -0.6594
     25 C20        -0.2214    0.1008   -0.2913 C.2       1 <0>         0.4908
     26 O2         -1.0180   -0.5398    0.3615 O.2       1 <0>        -0.5080
     27 C21        -0.3880    1.5920   -0.4376 C.3       1 <0>         0.0501
     28 O3          0.8959    2.2089   -0.5619 O.3       1 <0>        -0.3001
     29 H1          3.7749   -6.4718   -5.0989 H         1 <0>         0.1378
     30 H2          3.6610   -4.1143   -4.4106 H         1 <0>         0.1377
     31 H3          6.9833   -3.2153   -6.9671 H         1 <0>         0.1409
     32 H4          5.4850   -7.2100   -6.7036 H         1 <0>         0.1335
     33 H5          7.1132   -6.4010   -8.4710 H         1 <0>         0.4156
     34 H6          9.1155   -5.7127   -9.9010 H         1 <0>         0.1291
     35 H7         10.8686   -6.4738   -7.4142 H         1 <0>         0.1011
     36 H8         11.1801   -6.9861   -9.1583 H         1 <0>         0.1083
     37 H9         11.3692   -4.5502   -9.8401 H         1 <0>         0.1071
     38 H10        11.0575   -4.0376   -8.0962 H         1 <0>         0.1099
     39 H11         5.6662    1.5972   -4.6815 H         1 <0>         0.2038
     40 H12         4.2659    2.4182   -3.5610 H         1 <0>         0.1381
     41 H13         2.6964    3.4781   -1.9920 H         1 <0>         0.1459
     42 H14         2.6052   -1.4219   -2.6332 H         1 <0>         0.1440
     43 H15         0.9231   -1.4810   -0.8239 H         1 <0>         0.4177
     44 H16        -0.9808    1.8054   -1.3271 H         1 <0>         0.1023
     45 H17        -0.8974    1.9881    0.4410 H         1 <0>         0.1483
@<TRIPOS>BOND
     1    1    6 ar
     2    1    2 ar
     3    1   29 1
     4    2    3 ar
     5    2   30 1
     6    3    4 ar
     7    3   13 1
     8    4    5 ar
     9    4   31 1
    10    5    6 ar
    11    5    7 1
    12    6   32 1
    13    7    8 am
    14    7   33 1
    15    8    9 2
    16    8   10 1
    17   10   12 1
    18   10   11 1
    19   10   34 1
    20   11   12 1
    21   11   35 1
    22   11   36 1
    23   12   37 1
    24   12   38 1
    25   13   17 1
    26   13   14 2
    27   14   15 1
    28   15   16 2
    29   15   18 1
    30   16   17 1
    31   16   39 1
    32   18   23 ar
    33   18   19 ar
    34   19   20 ar
    35   19   40 1
    36   20   21 ar
    37   20   41 1
    38   21   28 1
    39   21   22 ar
    40   22   23 ar
    41   22   24 1
    42   23   42 1
    43   24   25 am
    44   24   43 1
    45   25   26 2
    46   25   27 1
    47   27   28 1
    48   27   44 1
    49   27   45 1
@<TRIPOS>MOLECULE
ZINC17114478
   51    54     0     0     0
SMALL
USER_CHARGES
N-(1,3-dioxo-2,4-diazaspiro[4.5]decan-2-yl)-2-(4-phenylphenyl)acetamide
@<TRIPOS>ATOM
      1 C1          0.0396   -2.7722   -0.0142 C.ar      1 <0>        -0.1187
      2 C2         -1.1689   -2.0996    0.0015 C.ar      1 <0>        -0.1177
      3 C3         -1.1935   -0.7196    0.0096 C.ar      1 <0>        -0.1106
      4 C4          0.0021   -0.0041    0.0020 C.ar      1 <0>        -0.0469
      5 C5          1.2166   -0.6868   -0.0191 C.ar      1 <0>        -0.1105
      6 C6          1.2295   -2.0669   -0.0217 C.ar      1 <0>        -0.1175
      7 C7         -0.0180    1.4797    0.0102 C.ar      1 <0>        -0.0402
      8 C8         -1.2326    2.1624    0.0196 C.ar      1 <0>        -0.1092
      9 C9         -1.2455    3.5425    0.0316 C.ar      1 <0>        -0.0981
     10 C10        -0.0556    4.2478    0.0244 C.ar      1 <0>        -0.0739
     11 C11         1.1530    3.5752    0.0098 C.ar      1 <0>        -0.0963
     12 C12         1.1775    2.1952    0.0026 C.ar      1 <0>        -0.1087
     13 C13        -0.0760    5.7547    0.0322 C.3       1 <0>        -0.0871
     14 C14        -0.0961    6.2641   -1.3859 C.2       1 <0>         0.5210
     15 O1         -0.0940    5.4807   -2.3118 O.2       1 <0>        -0.4989
     16 N1         -0.1164    7.5903   -1.6254 N.am      1 <0>        -0.5092
     17 N2         -0.1351    8.0639   -2.9438 N.am      1 <0>        -0.3783
     18 C15        -1.2257    8.5773   -3.5496 C.2       1 <0>         0.5329
     19 O2         -2.3334    8.7120   -3.0757 O.2       1 <0>        -0.4481
     20 C16        -0.7753    8.9496   -4.9438 C.3       1 <0>         0.1386
     21 C17        -0.9347   10.4488   -5.1708 C.3       1 <0>        -0.1156
     22 C18        -0.4476   10.8096   -6.5764 C.3       1 <0>        -0.1172
     23 C19        -1.2609   10.0306   -7.6122 C.3       1 <0>        -0.1261
     24 C20        -1.0712    8.5292   -7.3868 C.3       1 <0>        -0.1170
     25 C21        -1.5607    8.1591   -5.9844 C.3       1 <0>        -0.1168
     26 N3          0.6433    8.5721   -4.9728 N.am      1 <0>        -0.7079
     27 C22         0.9285    8.0683   -3.7567 C.2       1 <0>         0.7073
     28 O3          2.0272    7.6606   -3.4346 O.2       1 <0>        -0.5241
     29 H1          0.0542   -3.8521   -0.0208 H         1 <0>         0.1232
     30 H2         -2.0950   -2.6552    0.0070 H         1 <0>         0.1247
     31 H3         -2.1377   -0.1954    0.0214 H         1 <0>         0.1253
     32 H4          2.1461   -0.1370   -0.0291 H         1 <0>         0.1254
     33 H5          2.1703   -2.5971   -0.0336 H         1 <0>         0.1247
     34 H6         -2.1623    1.6127    0.0213 H         1 <0>         0.1268
     35 H7         -2.1863    4.0728    0.0423 H         1 <0>         0.1240
     36 H8          2.0790    4.1308    0.0043 H         1 <0>         0.1248
     37 H9          2.1217    1.6710   -0.0092 H         1 <0>         0.1270
     38 H10        -0.9660    6.1033    0.5561 H         1 <0>         0.1144
     39 H11         0.8137    6.1275    0.5396 H         1 <0>         0.1148
     40 H12        -0.1181    8.2168   -0.8849 H         1 <0>         0.4271
     41 H13        -1.9852   10.7216   -5.0695 H         1 <0>         0.0933
     42 H14        -0.3460   10.9925   -4.4319 H         1 <0>         0.0769
     43 H15         0.6069   10.5511   -6.6732 H         1 <0>         0.0660
     44 H16        -0.5764   11.8791   -6.7426 H         1 <0>         0.0775
     45 H17        -0.9205   10.2934   -8.6138 H         1 <0>         0.0711
     46 H18        -2.3164   10.2828   -7.5095 H         1 <0>         0.0698
     47 H19        -0.0147    8.2782   -7.4810 H         1 <0>         0.0659
     48 H20        -1.6443    7.9748   -8.1300 H         1 <0>         0.0775
     49 H21        -1.4122    7.0922   -5.8180 H         1 <0>         0.0783
     50 H22        -2.6210    8.3961   -5.8962 H         1 <0>         0.0925
     51 H23         1.2553    8.6699   -5.7190 H         1 <0>         0.4436
@<TRIPOS>BOND
     1    1    6 ar
     2    1    2 ar
     3    1   29 1
     4    2    3 ar
     5    2   30 1
     6    3    4 ar
     7    3   31 1
     8    4    5 ar
     9    4    7 1
    10    5    6 ar
    11    5   32 1
    12    6   33 1
    13    7   12 ar
    14    7    8 ar
    15    8    9 ar
    16    8   34 1
    17    9   10 ar
    18    9   35 1
    19   10   11 ar
    20   10   13 1
    21   11   12 ar
    22   11   36 1
    23   12   37 1
    24   13   14 1
    25   13   38 1
    26   13   39 1
    27   14   15 2
    28   14   16 am
    29   16   17 1
    30   16   40 1
    31   17   27 am
    32   17   18 am
    33   18   19 2
    34   18   20 1
    35   20   25 1
    36   20   21 1
    37   20   26 1
    38   21   22 1
    39   21   41 1
    40   21   42 1
    41   22   23 1
    42   22   43 1
    43   22   44 1
    44   23   24 1
    45   23   45 1
    46   23   46 1
    47   24   25 1
    48   24   47 1
    49   24   48 1
    50   25   49 1
    51   25   50 1
    52   26   27 am
    53   26   51 1
    54   27   28 2
@<TRIPOS>MOLECULE
ZINC39342395
   45    48     0     0     0
SMALL
USER_CHARGES

@<TRIPOS>ATOM
      1 C1         -0.0184    1.5028    0.0103 C.3       1 <0>        -0.0917
      2 C2          0.0021   -0.0041    0.0020 C.2       1 <0>        -0.0060
      3 C3         -1.0636   -0.7678    0.0029 C.2       1 <0>        -0.1561
      4 C4         -2.5370   -0.4917   -0.1224 C.3       1 <0>         0.1137
      5 H1         -2.6999    0.4956   -0.5546 H         1 <0>         0.1112
      6 C5         -3.0749   -1.5655   -1.0500 C.2       1 <0>        -0.2865
      7 C6         -2.3168   -2.6122   -1.4382 C.2       1 <0>         0.4496
      8 O1         -1.0334   -2.8415   -1.1072 O.3       1 <0>        -0.2783
      9 C7         -0.5285   -2.1988    0.0663 C.3       1 <0>         0.1623
     10 H2         -0.8342   -2.7144    0.9767 H         1 <0>         0.1637
     11 N1          0.9209   -1.9851    0.0015 N.2       1 <0>        -0.1343
     12 N2          1.1266   -0.7647   -0.0133 N.2       1 <0>        -0.1117
     13 N3         -2.9170   -3.5379   -2.2540 N.pl3     1 <0>        -0.8337
     14 C8         -4.4220   -1.4658   -1.5254 C.1       1 <0>         0.2744
     15 N4         -5.4906   -1.3866   -1.9025 N.1       1 <0>        -0.4408
     16 C9         -3.2011   -0.5847    1.2272 C.ar      1 <0>        -0.1155
     17 C10        -3.1484   -1.7669    1.9423 C.ar      1 <0>        -0.0687
     18 C11        -3.7567   -1.8549    3.1794 C.ar      1 <0>        -0.1451
     19 C12        -4.4205   -0.7556    3.7044 C.ar      1 <0>         0.1353
     20 C13        -4.4715    0.4296    2.9852 C.ar      1 <0>        -0.2039
     21 C14        -3.8572    0.5140    1.7507 C.ar      1 <0>        -0.0633
     22 O2         -5.0201   -0.8397    4.9211 O.3       1 <0>        -0.3068
     23 C15        -5.6851    0.3313    5.3990 C.3       1 <0>         0.1010
     24 C16        -6.2855    0.0510    6.7525 C.ar      1 <0>        -0.0699
     25 C17        -7.5728   -0.4445    6.8483 C.ar      1 <0>        -0.1051
     26 C18        -8.1248   -0.7022    8.0890 C.ar      1 <0>        -0.0917
     27 C19        -7.3906   -0.4642    9.2356 C.ar      1 <0>        -0.1422
     28 C20        -6.1016    0.0320    9.1410 C.ar      1 <0>         0.0971
     29 C21        -5.5474    0.2839    7.8971 C.ar      1 <0>        -0.1298
     30 F1         -5.3831    0.2654   10.2610 F         1 <0>        -0.1362
     31 H3          1.0042    1.8801    0.0026 H         1 <0>         0.0858
     32 H4         -0.5455    1.8639   -0.8728 H         1 <0>         0.0858
     33 H5         -0.5286    1.8543    0.9071 H         1 <0>         0.0857
     34 H6         -3.8416   -3.4206   -2.5227 H         1 <0>         0.4241
     35 H7         -2.4166   -4.3097   -2.5620 H         1 <0>         0.4115
     36 H8         -2.6315   -2.6224    1.5331 H         1 <0>         0.1193
     37 H9         -3.7159   -2.7787    3.7373 H         1 <0>         0.1335
     38 H10        -4.9877    1.2867    3.3917 H         1 <0>         0.1316
     39 H11        -3.8928    1.4378    1.1923 H         1 <0>         0.1294
     40 H12        -4.9681    1.1481    5.4817 H         1 <0>         0.0762
     41 H13        -6.4751    0.6106    4.7019 H         1 <0>         0.0779
     42 H14        -8.1475   -0.6301    5.9529 H         1 <0>         0.1328
     43 H15        -9.1304   -1.0892    8.1626 H         1 <0>         0.1382
     44 H16        -7.8223   -0.6648   10.2050 H         1 <0>         0.1393
     45 H17        -4.5403    0.6668    7.8219 H         1 <0>         0.1380
@<TRIPOS>BOND
     1    1    2 1
     2    1   31 1
     3    1   32 1
     4    1   33 1
     5    2   12 1
     6    2    3 2
     7    3    9 1
     8    3    4 1
     9    4    5 1
    10    4    6 1
    11    4   16 1
    12    6    7 2
    13    6   14 1
    14    7    8 1
    15    7   13 1
    16    8    9 1
    17    9   10 1
    18    9   11 1
    19   11   12 2
    20   13   34 1
    21   13   35 1
    22   14   15 3
    23   16   21 ar
    24   16   17 ar
    25   17   18 ar
    26   17   36 1
    27   18   19 ar
    28   18   37 1
    29   19   20 ar
    30   19   22 1
    31   20   21 ar
    32   20   38 1
    33   21   39 1
    34   22   23 1
    35   23   24 1
    36   23   40 1
    37   23   41 1
    38   24   29 ar
    39   24   25 ar
    40   25   26 ar
    41   25   42 1
    42   26   27 ar
    43   26   43 1
    44   27   28 ar
    45   27   44 1
    46   28   29 ar
    47   28   30 1
    48   29   45 1
@<TRIPOS>MOLECULE
ZINC52660574
   44    46     0     0     0
SMALL
USER_CHARGES

@<TRIPOS>ATOM
      1 C1         -0.0248    1.5315   -0.0045 C.3       1 <0>        -0.1715
      2 C2          0.0002    0.0017   -0.0012 C.3       1 <0>         0.1371
      3 H1          0.5274   -0.3511    0.8852 H         1 <0>         0.1133
      4 C3          0.7082   -0.4919   -1.2365 C.2       1 <0>         0.5153
      5 O1          0.1234   -1.2005   -2.0283 O.2       1 <0>        -0.5031
      6 N1          1.9912   -0.1458   -1.4616 N.am      1 <0>        -0.6679
      7 C4          2.6764   -0.6793   -2.5538 C.ar      1 <0>         0.1870
      8 C5          2.0014   -0.9183   -3.7470 C.ar      1 <0>        -0.1184
      9 C6          2.6731   -1.4449   -4.8270 C.ar      1 <0>        -0.0369
     10 C7          4.0360   -1.7396   -4.7248 C.ar      1 <0>        -0.0317
     11 C8          4.7119   -1.4977   -3.5242 C.ar      1 <0>         0.0245
     12 C9          4.0329   -0.9653   -2.4488 C.ar      1 <0>        -0.1368
     13 Cl1         6.4040   -1.8619   -3.3903 Cl        1 <0>        -0.0409
     14 C10         4.7380   -2.2879   -5.8460 C.1       1 <0>         0.2466
     15 N2          5.2949   -2.7229   -6.7355 N.1       1 <0>        -0.3932
     16 N3         -1.3729   -0.5090    0.0117 N.pl3     1 <0>        -0.7290
     17 C11        -2.0551   -0.6511    1.2251 C.ar      1 <0>         0.2284
     18 C12        -1.4322   -0.3024    2.4162 C.ar      1 <0>        -0.1932
     19 C13        -2.1037   -0.4403    3.6173 C.ar      1 <0>        -0.0654
     20 C14        -3.3996   -0.9276    3.6293 C.ar      1 <0>         0.0088
     21 C15        -4.0245   -1.2774    2.4410 C.ar      1 <0>         0.1171
     22 C16        -3.3571   -1.1355    1.2366 C.ar      1 <0>        -0.1883
     23 O2         -5.3027   -1.7551    2.4667 O.3       1 <0>        -0.3211
     24 C17        -5.4766   -3.0439    3.0591 C.3       1 <0>         0.0626
     25 C18        -5.6087   -2.9298    4.5697 C.3       1 <0>        -0.1880
     26 C19        -4.3392   -2.4074    5.2237 C.3       1 <0>         0.0582
     27 O3         -4.0713   -1.0660    4.8106 O.3       1 <0>        -0.3171
     28 H2          0.9968    1.9115   -0.0141 H         1 <0>         0.0719
     29 H3         -0.5520    1.8844   -0.8909 H         1 <0>         0.0701
     30 H4         -0.5369    1.8885    0.8890 H         1 <0>         0.0812
     31 H5          2.4382    0.4741   -0.8643 H         1 <0>         0.4191
     32 H6          0.9487   -0.6906   -3.8258 H         1 <0>         0.1564
     33 H7          2.1478   -1.6305   -5.7522 H         1 <0>         0.1491
     34 H8          4.5543   -0.7743   -1.5225 H         1 <0>         0.1502
     35 H9         -1.8090   -0.7487   -0.8209 H         1 <0>         0.4119
     36 H10        -0.4213    0.0776    2.4045 H         1 <0>         0.1302
     37 H11        -1.6185   -0.1691    4.5432 H         1 <0>         0.1356
     38 H12        -3.8445   -1.4039    0.3110 H         1 <0>         0.1344
     39 H13        -6.3767   -3.5064    2.6541 H         1 <0>         0.1045
     40 H14        -4.6152   -3.6676    2.8204 H         1 <0>         0.0577
     41 H15        -6.4303   -2.2522    4.8021 H         1 <0>         0.0839
     42 H16        -5.8380   -3.9135    4.9794 H         1 <0>         0.0901
     43 H17        -4.4573   -2.4323    6.3070 H         1 <0>         0.1020
     44 H18        -3.5013   -3.0443    4.9402 H         1 <0>         0.0555
@<TRIPOS>BOND
     1    1    2 1
     2    1   28 1
     3    1   29 1
     4    1   30 1
     5    2    3 1
     6    2    4 1
     7    2   16 1
     8    4    5 2
     9    4    6 am
    10    6    7 1
    11    6   31 1
    12    7   12 ar
    13    7    8 ar
    14    8    9 ar
    15    8   32 1
    16    9   10 ar
    17    9   33 1
    18   10   11 ar
    19   10   14 1
    20   11   12 ar
    21   11   13 1
    22   12   34 1
    23   14   15 3
    24   16   17 1
    25   16   35 1
    26   17   22 ar
    27   17   18 ar
    28   18   19 ar
    29   18   36 1
    30   19   20 ar
    31   19   37 1
    32   20   27 1
    33   20   21 ar
    34   21   22 ar
    35   21   23 1
    36   22   38 1
    37   23   24 1
    38   24   25 1
    39   24   39 1
    40   24   40 1
    41   25   26 1
    42   25   41 1
    43   25   42 1
    44   26   27 1
    45   26   43 1
    46   26   44 1
@<TRIPOS>MOLECULE
ZINC63856740
   56    59     0     0     0
SMALL
USER_CHARGES

@<TRIPOS>ATOM
      1 C1         -2.9856    2.2942    1.5155 C.3       1 <0>        -0.1707
      2 C2         -1.8628    1.6301    0.7160 C.3       1 <0>         0.0890
      3 N1         -2.2617    0.2681    0.3525 N.am      1 <0>        -0.6003
      4 C3         -3.0471    0.0343   -0.8619 C.3       1 <0>         0.1544
      5 C4         -4.3786   -0.6211   -0.4898 C.3       1 <0>        -0.1355
      6 C5         -5.1988   -0.8653   -1.7581 C.3       1 <0>        -0.1141
      7 C6         -4.4212   -1.7882   -2.6985 C.3       1 <0>        -0.1222
      8 C7         -3.0898   -1.1328   -3.0706 C.3       1 <0>        -0.1143
      9 C8         -2.2695   -0.8886   -1.8023 C.3       1 <0>        -0.1387
     10 C9         -1.9062   -0.7698    1.1353 C.2       1 <0>         0.5662
     11 O1         -2.1655   -1.9065    0.7922 O.2       1 <0>        -0.5104
     12 C10        -1.2004   -0.5254    2.4121 C.ar      1 <0>        -0.0518
     13 C11         0.0135    0.1451    2.4485 C.ar      1 <0>        -0.1415
     14 C12         0.6482    0.3549    3.6826 C.ar      1 <0>         0.2272
     15 N2          0.1317   -0.0639    4.8190 N.ar      1 <0>        -0.4610
     16 C13        -1.0303   -0.7165    4.8767 C.ar      1 <0>         0.1416
     17 C14        -1.7575   -0.9758    3.6876 C.ar      1 <0>        -0.0699
     18 C15        -2.9787   -1.6557    3.7531 C.ar      1 <0>        -0.0982
     19 C16        -3.4614   -2.0583    4.9630 C.ar      1 <0>        -0.1029
     20 C17        -2.7539   -1.8012    6.1353 C.ar      1 <0>        -0.1030
     21 C18        -1.5580   -1.1522    6.1064 C.ar      1 <0>        -0.0563
     22 C19        -0.8105   -0.8858    7.3875 C.3       1 <0>        -0.1095
     23 C20         1.9447    1.0721    3.7074 C.ar      1 <0>        -0.2279
     24 C21         2.5282    1.5396    2.5257 C.ar      1 <0>         0.2200
     25 N3          3.6845    2.1747    2.5894 N.ar      1 <0>        -0.5681
     26 C22         4.2901    2.3705    3.7523 C.ar      1 <0>         0.5736
     27 N4          3.7691    1.9421    4.8936 N.ar      1 <0>        -0.5706
     28 C23         2.6130    1.3037    4.9136 C.ar      1 <0>         0.2428
     29 N5          5.4992    3.0399    3.7755 N.pl3     1 <0>        -0.8132
     30 H1         -2.6888    3.3075    1.7859 H         1 <0>         0.0697
     31 H2         -3.8909    2.3303    0.9094 H         1 <0>         0.0612
     32 H3         -3.1770    1.7179    2.4206 H         1 <0>         0.0568
     33 H4         -1.6714    2.2064   -0.1892 H         1 <0>         0.0851
     34 H5         -0.9575    1.5940    1.3220 H         1 <0>         0.0870
     35 H6         -3.2369    0.9848   -1.3605 H         1 <0>         0.0884
     36 H7         -4.1889   -1.5717    0.0088 H         1 <0>         0.0824
     37 H8         -4.9326    0.0364    0.1802 H         1 <0>         0.0609
     38 H9         -6.1474   -1.3323   -1.4930 H         1 <0>         0.0651
     39 H10        -5.3886    0.0852   -2.2567 H         1 <0>         0.0611
     40 H11        -4.2315   -2.7388   -2.1999 H         1 <0>         0.0649
     41 H12        -5.0056   -1.9622   -3.6021 H         1 <0>         0.0625
     42 H13        -2.5358   -1.7903   -3.7406 H         1 <0>         0.0652
     43 H14        -3.2795   -0.1823   -3.5692 H         1 <0>         0.0605
     44 H15        -1.3210   -0.4217   -2.0674 H         1 <0>         0.0604
     45 H16        -2.0798   -1.8391   -1.3037 H         1 <0>         0.0893
     46 H17         0.4663    0.5022    1.5353 H         1 <0>         0.1446
     47 H18        -3.5357   -1.8600    2.8506 H         1 <0>         0.1311
     48 H19        -4.4042   -2.5828    5.0132 H         1 <0>         0.1311
     49 H20        -3.1571   -2.1298    7.0818 H         1 <0>         0.1332
     50 H21        -1.1267    0.0723    7.8001 H         1 <0>         0.0739
     51 H22        -1.0243   -1.6785    8.1045 H         1 <0>         0.0677
     52 H23         0.2601   -0.8584    7.1846 H         1 <0>         0.0783
     53 H24         2.0406    1.3833    1.5748 H         1 <0>         0.1694
     54 H25         2.1921    0.9615    5.8475 H         1 <0>         0.1805
     55 H26         5.8929    3.3589    2.9484 H         1 <0>         0.4171
     56 H27         5.9540    3.1906    4.6189 H         1 <0>         0.4176
@<TRIPOS>BOND
     1    1    2 1
     2    1   30 1
     3    1   31 1
     4    1   32 1
     5    2    3 1
     6    2   33 1
     7    2   34 1
     8    3    4 1
     9    3   10 am
    10    4    9 1
    11    4    5 1
    12    4   35 1
    13    5    6 1
    14    5   36 1
    15    5   37 1
    16    6    7 1
    17    6   38 1
    18    6   39 1
    19    7    8 1
    20    7   40 1
    21    7   41 1
    22    8    9 1
    23    8   42 1
    24    8   43 1
    25    9   44 1
    26    9   45 1
    27   10   11 2
    28   10   12 1
    29   12   17 ar
    30   12   13 ar
    31   13   14 ar
    32   13   46 1
    33   14   15 ar
    34   14   23 1
    35   15   16 ar
    36   16   21 ar
    37   16   17 ar
    38   17   18 ar
    39   18   19 ar
    40   18   47 1
    41   19   20 ar
    42   19   48 1
    43   20   21 ar
    44   20   49 1
    45   21   22 1
    46   22   50 1
    47   22   51 1
    48   22   52 1
    49   23   28 ar
    50   23   24 ar
    51   24   25 ar
    52   24   53 1
    53   25   26 ar
    54   26   27 ar
    55   26   29 1
    56   27   28 ar
    57   28   54 1
    58   29   55 1
    59   29   56 1
@<TRIPOS>MOLECULE
ZINC06112600
   51    54     0     0     0
SMALL
USER_CHARGES
N-(cyclohexylcarbamoyl)-2-BLAHylsulfanyl-propanamide
@<TRIPOS>ATOM
      1 C1          2.2463    4.3146   -1.3028 C.3       1 <0>        -0.1442
      2 C2          3.0227    4.0883   -0.0040 C.3       1 <0>        -0.1185
      3 H1          2.3445    4.1762    0.8447 H         1 <0>         0.1286
      4 C3          4.1136    5.1211    0.1156 C.2       1 <0>         0.5388
      5 O1          5.2367    4.8630   -0.2610 O.2       1 <0>        -0.4471
      6 N1          3.8407    6.3317    0.6414 N.am      1 <0>        -0.6855
      7 C4          4.8163    7.2554    0.7484 C.2       1 <0>         0.6947
      8 O2          5.9422    6.9966    0.3708 O.2       1 <0>        -0.5242
      9 N2          4.5434    8.4660    1.2741 N.am      1 <0>        -0.7328
     10 C5          5.6039    9.4700    1.3904 C.3       1 <0>         0.1603
     11 C6          6.3803    9.2437    2.6892 C.3       1 <0>        -0.1309
     12 C7          7.4878   10.2923    2.8107 C.3       1 <0>        -0.1179
     13 C8          6.8670   11.6906    2.8247 C.3       1 <0>        -0.1230
     14 C9          6.0906   11.9169    1.5259 C.3       1 <0>        -0.1165
     15 C10         4.9830   10.8683    1.4045 C.3       1 <0>        -0.1259
     16 S1          3.7572    2.4341   -0.0206 S.3       1 <0>         0.0628
     17 C11         2.2955    1.4502   -0.0127 C.ar      1 <0>         0.1946
     18 C12         2.3804    0.0301   -0.0218 C.ar      1 <0>        -0.1569
     19 C13         3.5862   -0.8139   -0.0397 C.2       1 <0>        -0.1155
     20 C14         3.3963   -2.1432   -0.0425 C.2       1 <0>        -0.1583
     21 S2          1.6311   -2.3588   -0.0247 S.3       1 <0>         0.1604
     22 C15         1.1513   -0.6530   -0.0125 C.ar      1 <0>         0.1261
     23 N3          0.0021   -0.0041    0.0020 N.ar      1 <0>        -0.4816
     24 C16        -0.0158    1.3150    0.0093 C.ar      1 <0>         0.3295
     25 N4          1.1004    2.0212    0.0024 N.ar      1 <0>        -0.5363
     26 C17         4.6959   -2.9028   -0.0567 C.3       1 <0>        -0.0382
     27 C18         5.7556   -1.8656    0.3751 C.3       1 <0>        -0.1153
     28 C19         5.0933   -0.5429   -0.0574 C.3       1 <0>        -0.0670
     29 H2          1.4573    3.5676   -1.3894 H         1 <0>         0.0948
     30 H3          1.8040    5.3108   -1.2928 H         1 <0>         0.0724
     31 H4          2.9246    4.2267   -2.1516 H         1 <0>         0.0711
     32 H5          2.9421    6.5382    0.9427 H         1 <0>         0.4117
     33 H6          3.6448    8.6725    1.5755 H         1 <0>         0.3982
     34 H7          6.2821    9.3821    0.5417 H         1 <0>         0.0917
     35 H8          5.7021    9.3316    3.5380 H         1 <0>         0.0641
     36 H9          6.8226    8.2475    2.6792 H         1 <0>         0.0684
     37 H10         8.1661   10.2044    1.9620 H         1 <0>         0.0658
     38 H11         8.0409   10.1310    3.7360 H         1 <0>         0.0664
     39 H12         7.6560   12.4376    2.9113 H         1 <0>         0.0654
     40 H13         6.1887   11.7785    3.6735 H         1 <0>         0.0630
     41 H14         6.7688   11.8290    0.6772 H         1 <0>         0.0666
     42 H15         5.6483   12.9131    1.5359 H         1 <0>         0.0691
     43 H16         4.4299   11.0296    0.4792 H         1 <0>         0.0699
     44 H17         4.3048   10.9562    2.2532 H         1 <0>         0.0692
     45 H18        -0.9654    1.8295    0.0165 H         1 <0>         0.2121
     46 H19         4.6612   -3.7293    0.6531 H         1 <0>         0.0866
     47 H20         4.9105   -3.2708   -1.0600 H         1 <0>         0.0935
     48 H21         5.9093   -1.8906    1.4540 H         1 <0>         0.0802
     49 H22         6.6949   -2.0234   -0.1550 H         1 <0>         0.0898
     50 H23         5.3419    0.2511    0.6468 H         1 <0>         0.0812
     51 H24         5.4168   -0.2701   -1.0619 H         1 <0>         0.0884
@<TRIPOS>BOND
     1    1    2 1
     2    1   29 1
     3    1   30 1
     4    1   31 1
     5    2    3 1
     6    2    4 1
     7    2   16 1
     8    4    5 2
     9    4    6 am
    10    6    7 am
    11    6   32 1
    12    7    8 2
    13    7    9 am
    14    9   10 1
    15    9   33 1
    16   10   15 1
    17   10   11 1
    18   10   34 1
    19   11   12 1
    20   11   35 1
    21   11   36 1
    22   12   13 1
    23   12   37 1
    24   12   38 1
    25   13   14 1
    26   13   39 1
    27   13   40 1
    28   14   15 1
    29   14   41 1
    30   14   42 1
    31   15   43 1
    32   15   44 1
    33   16   17 1
    34   17   25 ar
    35   17   18 ar
    36   18   22 ar
    37   18   19 1
    38   19   28 1
    39   19   20 2
    40   20   21 1
    41   20   26 1
    42   21   22 1
    43   22   23 ar
    44   23   24 ar
    45   24   25 ar
    46   24   45 1
    47   26   27 1
    48   26   46 1
    49   26   47 1
    50   27   28 1
    51   27   48 1
    52   27   49 1
    53   28   50 1
    54   28   51 1
@<TRIPOS>MOLECULE
ZINC14478093
   58    62     0     0     0
SMALL
USER_CHARGES
(3aS,4S,9bS)-N-cyclohexyl-4-(2-nitrophenyl)-3a,4,5,9b-tetrahydro-3H-cyclopenta[c]quinoline-6-carboxamide
@<TRIPOS>ATOM
      1 C1          2.1430    0.1675    3.3824 C.ar      1 <0>        -0.0648
      2 C2          3.4454    0.5909    3.5717 C.ar      1 <0>        -0.1157
      3 C3          4.0205    1.4769    2.6804 C.ar      1 <0>        -0.0537
      4 C4          3.2955    1.9350    1.5960 C.ar      1 <0>        -0.0359
      5 C5          1.9917    1.5158    1.4096 C.ar      1 <0>        -0.0051
      6 C6          1.4162    0.6298    2.3014 C.ar      1 <0>        -0.1039
      7 C7          1.1995    2.0196    0.2307 C.3       1 <0>         0.1300
      8 H1          1.4016    3.0790    0.0731 H         1 <0>         0.0955
      9 C8         -0.2802    1.8072    0.4747 C.3       1 <0>        -0.1036
     10 H2         -0.5341    0.7473    0.4861 H         1 <0>         0.1008
     11 C9         -0.9311    2.5550    1.6439 C.3       1 <0>        -0.0892
     12 C10        -2.3864    2.6996    1.1027 C.2       1 <0>        -0.1642
     13 C11        -2.3863    2.6784   -0.2259 C.2       1 <0>        -0.1461
     14 C12        -0.9840    2.5641   -0.6945 C.3       1 <0>        -0.0311
     15 H3         -0.5693    3.5714   -0.7334 H         1 <0>         0.0875
     16 C13        -0.6283    1.8499   -1.9399 C.ar      1 <0>        -0.1355
     17 C14        -1.4961    1.7794   -3.0079 C.ar      1 <0>        -0.0491
     18 C15        -1.1289    1.1409   -4.1806 C.ar      1 <0>        -0.1653
     19 C16         0.1205    0.5698   -4.2883 C.ar      1 <0>        -0.0529
     20 C17         1.0088    0.6262   -3.2166 C.ar      1 <0>        -0.1932
     21 C18         0.6371    1.2606   -2.0128 C.ar      1 <0>         0.2169
     22 N1          1.5541    1.2548   -0.9754 N.pl3     1 <0>        -0.6130
     23 C19         2.3462    0.0182   -3.3412 C.2       1 <0>         0.5652
     24 O1          3.1246    0.0647   -2.4081 O.2       1 <0>        -0.5327
     25 N2          2.7060   -0.5892   -4.4893 N.am      1 <0>        -0.7255
     26 C20         4.0348   -1.1933   -4.6132 C.3       1 <0>         0.1474
     27 C21         5.0442   -0.1234   -5.0343 C.3       1 <0>        -0.1292
     28 C22         6.4321   -0.7544   -5.1637 C.3       1 <0>        -0.1174
     29 C23         6.3926   -1.8618   -6.2187 C.3       1 <0>        -0.1223
     30 C24         5.3832   -2.9316   -5.7975 C.3       1 <0>        -0.1159
     31 C25         3.9953   -2.3007   -5.6682 C.3       1 <0>        -0.1266
     32 N3          3.9135    2.8788    0.6378 N.pl3     1 <0>         0.0348
     33 O2          5.0233    3.3301    0.8574 O.2       1 <0>        -0.1462
     34 O3          3.3124    3.2042   -0.3703 O.3       1 <0>        -0.1784
     35 H4          1.6935   -0.5249    4.0788 H         1 <0>         0.1454
     36 H5          4.0132    0.2296    4.4164 H         1 <0>         0.1490
     37 H6          5.0378    1.8080    2.8286 H         1 <0>         0.1548
     38 H7          0.3989    0.2988    2.1533 H         1 <0>         0.1495
     39 H8         -0.8877    1.9640    2.5588 H         1 <0>         0.0786
     40 H9         -0.4695    3.5317    1.7890 H         1 <0>         0.0804
     41 H10        -3.2661    2.8000    1.7211 H         1 <0>         0.1320
     42 H11        -3.2602    2.7345   -0.8580 H         1 <0>         0.1346
     43 H12        -2.4755    2.2276   -2.9292 H         1 <0>         0.1264
     44 H13        -1.8203    1.0904   -5.0087 H         1 <0>         0.1287
     45 H14         0.4115    0.0780   -5.2047 H         1 <0>         0.1240
     46 H15         2.4743    1.5053   -1.3048 H         1 <0>         0.3939
     47 H16         2.0851   -0.6263   -5.2336 H         1 <0>         0.3979
     48 H17         4.3326   -1.6161   -3.6536 H         1 <0>         0.0877
     49 H18         4.7465    0.2993   -5.9939 H         1 <0>         0.0635
     50 H19         5.0724    0.6655   -4.2827 H         1 <0>         0.0674
     51 H20         6.7298   -1.1772   -4.2041 H         1 <0>         0.0636
     52 H21         7.1512    0.0078   -5.4637 H         1 <0>         0.0655
     53 H22         7.3813   -2.3112   -6.3108 H         1 <0>         0.0642
     54 H23         6.0948   -1.4390   -7.1782 H         1 <0>         0.0629
     55 H24         5.6809   -3.3544   -4.8380 H         1 <0>         0.0647
     56 H25         5.3550   -3.7206   -6.5491 H         1 <0>         0.0676
     57 H26         3.2762   -3.0629   -5.3681 H         1 <0>         0.0683
     58 H27         3.6976   -1.8779   -6.6277 H         1 <0>         0.0680
@<TRIPOS>BOND
     1    1    6 ar
     2    1    2 ar
     3    1   35 1
     4    2    3 ar
     5    2   36 1
     6    3    4 ar
     7    3   37 1
     8    4    5 ar
     9    4   32 1
    10    5    6 ar
    11    5    7 1
    12    6   38 1
    13    7    8 1
    14    7   22 1
    15    7    9 1
    16    9   10 1
    17    9   14 1
    18    9   11 1
    19   11   12 1
    20   11   39 1
    21   11   40 1
    22   12   13 2
    23   12   41 1
    24   13   14 1
    25   13   42 1
    26   14   15 1
    27   14   16 1
    28   16   21 ar
    29   16   17 ar
    30   17   18 ar
    31   17   43 1
    32   18   19 ar
    33   18   44 1
    34   19   20 ar
    35   19   45 1
    36   20   21 ar
    37   20   23 1
    38   21   22 1
    39   22   46 1
    40   23   24 2
    41   23   25 am
    42   25   26 1
    43   25   47 1
    44   26   31 1
    45   26   27 1
    46   26   48 1
    47   27   28 1
    48   27   49 1
    49   27   50 1
    50   28   29 1
    51   28   51 1
    52   28   52 1
    53   29   30 1
    54   29   53 1
    55   29   54 1
    56   30   31 1
    57   30   55 1
    58   30   56 1
    59   31   57 1
    60   31   58 1
    61   32   33 2
    62   32   34 1
@<TRIPOS>MOLECULE
ZINC06009462
   49    52     0     0     0
SMALL
USER_CHARGES

@<TRIPOS>ATOM
      1 C1         -0.0173    1.4248    0.0099 C.3       1 <0>         0.0279
      2 O1          0.0021   -0.0041    0.0020 O.3       1 <0>        -0.3156
      3 C2          0.6058   -0.6071   -1.0557 C.ar      1 <0>         0.1276
      4 C3          1.1731    0.1608   -2.0626 C.ar      1 <0>        -0.2113
      5 C4          1.7865   -0.4545   -3.1363 C.ar      1 <0>        -0.0857
      6 C5          1.8356   -1.8347   -3.2084 C.ar      1 <0>        -0.1503
      7 C6          1.2707   -2.6020   -2.2067 C.ar      1 <0>        -0.0236
      8 C7          0.6609   -1.9913   -1.1277 C.ar      1 <0>        -0.1162
      9 C8          1.3255   -4.1057   -2.2887 C.3       1 <0>         0.0912
     10 H1          0.8310   -4.5289   -1.4143 H         1 <0>         0.1015
     11 C9          2.7598   -4.5449   -2.3024 C.2       1 <0>        -0.2770
     12 C10         3.3600   -4.9381   -3.4579 C.2       1 <0>         0.4067
     13 N1          4.6739   -5.3260   -3.4331 N.pl3     1 <0>        -0.6122
     14 C11         5.3668   -5.3173   -2.2599 C.2       1 <0>         0.4052
     15 N2          4.7956   -4.9419   -1.1342 N.2       1 <0>        -0.5778
     16 C12         3.5112   -4.5545   -1.1071 C.2       1 <0>         0.5306
     17 O2          2.9948   -4.2109   -0.0537 O.2       1 <0>        -0.4892
     18 S1          7.0563   -5.8174   -2.2486 S.3       1 <0>        -0.0075
     19 C13         7.5527   -5.6471   -0.5121 C.3       1 <0>        -0.0626
     20 C14         8.9972   -6.0488   -0.3610 C.2       1 <0>        -0.1609
     21 C15         9.8903   -5.1598   -0.0031 C.2       1 <0>        -0.1450
     22 N3          2.6523   -4.9484   -4.6370 N.pl3     1 <0>        -0.6430
     23 C16         1.2837   -4.9456   -4.6301 C.2       1 <0>         0.2146
     24 C17         0.6031   -4.5590   -3.5319 C.2       1 <0>        -0.2541
     25 C18        -0.8025   -4.5670   -3.5132 C.2       1 <0>         0.3978
     26 C19        -1.5966   -5.0122   -4.7105 C.3       1 <0>        -0.1687
     27 C20        -0.7708   -6.0279   -5.5070 C.3       1 <0>        -0.1106
     28 C21         0.5601   -5.3797   -5.8811 C.3       1 <0>        -0.0945
     29 O3         -1.3873   -4.2077   -2.5104 O.2       1 <0>        -0.4534
     30 H2          1.0053    1.8021    0.0021 H         1 <0>         0.0539
     31 H3         -0.5445    1.7859   -0.8732 H         1 <0>         0.0541
     32 H4         -0.5275    1.7763    0.9067 H         1 <0>         0.1000
     33 H5          1.1347    1.2387   -2.0069 H         1 <0>         0.1256
     34 H6          2.2279    0.1427   -3.9204 H         1 <0>         0.1205
     35 H7          2.3157   -2.3139   -4.0487 H         1 <0>         0.1086
     36 H8          0.2237   -2.5911   -0.3432 H         1 <0>         0.1321
     37 H9          7.4291   -4.6104   -0.1989 H         1 <0>         0.1073
     38 H10         6.9296   -6.2910    0.1086 H         1 <0>         0.1131
     39 H11         9.2962   -7.0697   -0.5476 H         1 <0>         0.1233
     40 H12        10.9256   -5.4476    0.1052 H         1 <0>         0.1106
     41 H13         9.5913   -4.1389    0.1835 H         1 <0>         0.1039
     42 H14        -2.5256   -5.4766   -4.3799 H         1 <0>         0.0995
     43 H15        -1.8213   -4.1512   -5.3399 H         1 <0>         0.1021
     44 H16        -0.5900   -6.9125   -4.8963 H         1 <0>         0.0761
     45 H17        -1.3091   -6.3081   -6.4125 H         1 <0>         0.0899
     46 H18         0.3765   -4.5114   -6.5139 H         1 <0>         0.1026
     47 H19         1.1729   -6.1000   -6.4232 H         1 <0>         0.0918
     48 H20         3.1280   -4.9573   -5.4823 H         1 <0>         0.4180
     49 H21         5.1115   -5.6069   -4.2520 H         1 <0>         0.4231
@<TRIPOS>BOND
     1    1    2 1
     2    1   30 1
     3    1   31 1
     4    1   32 1
     5    2    3 1
     6    3    8 ar
     7    3    4 ar
     8    4    5 ar
     9    4   33 1
    10    5    6 ar
    11    5   34 1
    12    6    7 ar
    13    6   35 1
    14    7    8 ar
    15    7    9 1
    16    8   36 1
    17    9   10 1
    18    9   11 1
    19    9   24 1
    20   11   16 1
    21   11   12 2
    22   12   13 1
    23   12   22 1
    24   13   14 1
    25   13   49 1
    26   14   15 2
    27   14   18 1
    28   15   16 1
    29   16   17 2
    30   18   19 1
    31   19   20 1
    32   19   37 1
    33   19   38 1
    34   20   21 2
    35   20   39 1
    36   21   40 1
    37   21   41 1
    38   22   23 1
    39   22   48 1
    40   23   24 2
    41   23   28 1
    42   24   25 1
    43   25   29 2
    44   25   26 1
    45   26   27 1
    46   26   42 1
    47   26   43 1
    48   27   28 1
    49   27   44 1
    50   27   45 1
    51   28   46 1
    52   28   47 1
@<TRIPOS>MOLECULE
ZINC43397170
   58    63     0     0     0
SMALL
USER_CHARGES

@<TRIPOS>ATOM
      1 C1         -0.0127    1.3760   -0.1811 C.ar      1 <0>        -0.0944
      2 C2          1.1745    2.0818   -0.1832 C.ar      1 <0>        -0.1163
      3 C3          2.3794    1.4114   -0.0191 C.ar      1 <0>         0.1583
      4 C4          2.3865    0.0327    0.1466 C.ar      1 <0>        -0.1439
      5 C5          1.1959   -0.6674    0.1478 C.ar      1 <0>        -0.0998
      6 C6         -0.0023    0.0031   -0.0159 C.ar      1 <0>        -0.0835
      7 C7         -1.2995   -0.7638   -0.0137 C.3       1 <0>        -0.0096
      8 C8         -2.0167   -0.5567   -1.3493 C.3       1 <0>        -0.0976
      9 C9         -3.3337   -1.3354   -1.3470 C.3       1 <0>        -0.0865
     10 C10        -3.0453   -2.8248   -1.1487 C.3       1 <0>        -0.1087
     11 C11        -2.3281   -3.0319    0.1869 C.3       1 <0>        -0.0865
     12 C12        -1.0111   -2.2532    0.1847 C.3       1 <0>        -0.1037
     13 C13        -3.2164   -2.5283    1.3263 C.3       1 <0>        -0.1090
     14 C14        -3.5048   -1.0389    1.1279 C.3       1 <0>        -0.0867
     15 C15        -4.2220   -0.8317   -0.2077 C.3       1 <0>        -0.1089
     16 C16        -2.1878   -0.2602    1.1256 C.3       1 <0>        -0.0985
     17 N1          3.5841    2.1236   -0.0212 N.am      1 <0>        -0.6841
     18 C17         3.6281    3.3748    0.4780 C.2       1 <0>         0.7089
     19 O1          2.6469    3.8490    1.0172 O.2       1 <0>        -0.5660
     20 N2          4.7596    4.1002    0.3793 N.am      1 <0>        -0.7393
     21 C18         4.8075    5.4602    0.9219 C.3       1 <0>         0.2324
     22 C19         6.1745    6.0481    0.6841 C.2       1 <0>         0.1680
     23 N3          7.2025    5.9650    1.4838 N.2       1 <0>        -0.2602
     24 N4          8.2047    6.5817    0.9657 N.2       1 <0>        -0.2770
     25 C20         7.8599    7.0879   -0.1886 C.2       1 <0>         0.1673
     26 N5          6.5670    6.7569   -0.4034 N.pl3     1 <0>        -0.4869
     27 C21         6.0946    7.2756   -1.6929 C.3       1 <0>         0.0997
     28 C22         7.1183    8.3560   -2.1049 C.3       1 <0>        -0.1297
     29 C23         8.3862    7.8972   -1.3541 C.3       1 <0>        -0.0430
     30 H1         -0.9505    1.8974   -0.3042 H         1 <0>         0.1231
     31 H2          1.1657    3.1540   -0.3127 H         1 <0>         0.1336
     32 H3          3.3221   -0.4917    0.2741 H         1 <0>         0.1237
     33 H4          1.2008   -1.7397    0.2763 H         1 <0>         0.1298
     34 H5         -2.2222    0.5044   -1.4906 H         1 <0>         0.0633
     35 H6         -1.3838   -0.9155   -2.1610 H         1 <0>         0.0627
     36 H7         -3.8446   -1.1878   -2.2985 H         1 <0>         0.0697
     37 H8         -3.9835   -3.3795   -1.1471 H         1 <0>         0.0615
     38 H9         -2.4124   -3.1836   -1.9604 H         1 <0>         0.0612
     39 H10        -2.1226   -4.0930    0.3282 H         1 <0>         0.0698
     40 H11        -0.3782   -2.6120   -0.6271 H         1 <0>         0.0650
     41 H12        -0.5001   -2.4008    1.1361 H         1 <0>         0.0654
     42 H13        -4.1547   -3.0830    1.3278 H         1 <0>         0.0615
     43 H14        -2.7055   -2.6758    2.2777 H         1 <0>         0.0616
     44 H15        -4.1377   -0.6801    1.9396 H         1 <0>         0.0701
     45 H16        -4.4275    0.2293   -0.3490 H         1 <0>         0.0614
     46 H17        -5.1603   -1.3865   -0.2061 H         1 <0>         0.0615
     47 H18        -1.6769   -0.4077    2.0771 H         1 <0>         0.0634
     48 H19        -2.3933    0.8009    0.9843 H         1 <0>         0.0637
     49 H20         4.3874    1.7168   -0.3819 H         1 <0>         0.4070
     50 H21         5.5424    3.7219   -0.0509 H         1 <0>         0.4003
     51 H22         4.0562    6.0755    0.4268 H         1 <0>         0.0885
     52 H23         4.6056    5.4315    1.9926 H         1 <0>         0.1074
     53 H24         6.0705    6.4770   -2.4344 H         1 <0>         0.0978
     54 H25         5.1045    7.7174   -1.5816 H         1 <0>         0.0994
     55 H26         7.2762    8.3524   -3.1834 H         1 <0>         0.1086
     56 H27         6.8043    9.3417   -1.7615 H         1 <0>         0.0922
     57 H28         8.9583    8.7532   -0.9964 H         1 <0>         0.1078
     58 H29         8.9983    7.2737   -2.0057 H         1 <0>         0.1042
@<TRIPOS>BOND
     1    1    6 ar
     2    1    2 ar
     3    1   30 1
     4    2    3 ar
     5    2   31 1
     6    3    4 ar
     7    3   17 1
     8    4    5 ar
     9    4   32 1
    10    5    6 ar
    11    5   33 1
    12    6    7 1
    13    7   12 1
    14    7   16 1
    15    7    8 1
    16    8    9 1
    17    8   34 1
    18    8   35 1
    19    9   15 1
    20    9   10 1
    21    9   36 1
    22   10   11 1
    23   10   37 1
    24   10   38 1
    25   11   12 1
    26   11   13 1
    27   11   39 1
    28   12   40 1
    29   12   41 1
    30   13   14 1
    31   13   42 1
    32   13   43 1
    33   14   15 1
    34   14   16 1
    35   14   44 1
    36   15   45 1
    37   15   46 1
    38   16   47 1
    39   16   48 1
    40   17   18 am
    41   17   49 1
    42   18   19 2
    43   18   20 am
    44   20   21 1
    45   20   50 1
    46   21   22 1
    47   21   51 1
    48   21   52 1
    49   22   26 1
    50   22   23 2
    51   23   24 1
    52   24   25 2
    53   25   29 1
    54   25   26 1
    55   26   27 1
    56   27   28 1
    57   27   53 1
    58   27   54 1
    59   28   29 1
    60   28   55 1
    61   28   56 1
    62   29   57 1
    63   29   58 1
@<TRIPOS>MOLECULE
ZINC09375876
   51    54     0     0     0
SMALL
USER_CHARGES

@<TRIPOS>ATOM
      1 C1          0.1382    1.3898   -0.0653 C.3       1 <0>        -0.1175
      2 C2          0.0876   -0.1164   -0.0684 C.ar      1 <0>        -0.0729
      3 C3          0.7597   -0.8272   -1.0457 C.ar      1 <0>        -0.1182
      4 C4          0.7153   -2.2076   -1.0513 C.ar      1 <0>        -0.0802
      5 C5         -0.0050   -2.8817   -0.0739 C.ar      1 <0>         0.1171
      6 C6         -0.6786   -2.1648    0.9064 C.ar      1 <0>        -0.0578
      7 C7         -0.6263   -0.7847    0.9093 C.ar      1 <0>        -0.1178
      8 C8         -1.4619   -2.8922    1.9686 C.3       1 <0>        -0.1099
      9 N1         -0.0524   -4.2801   -0.0771 N.am      1 <0>        -0.6614
     10 C9          0.3447   -4.9703    1.0103 C.2       1 <0>         0.5399
     11 O1          0.6587   -4.3798    2.0221 O.2       1 <0>        -0.4950
     12 C10         0.3986   -6.4758    0.9689 C.3       1 <0>        -0.1322
     13 H1          0.7855   -6.7991    0.0026 H         1 <0>         0.1329
     14 C11        -1.0083   -7.0422    1.1704 C.3       1 <0>        -0.1514
     15 S1          1.4877   -7.0783    2.2886 S.3       1 <0>         0.1787
     16 C12         1.5631   -8.8178    2.0182 C.2       1 <0>         0.2067
     17 N2          0.9549   -9.4612    1.0631 N.2       1 <0>        -0.2781
     18 N3          1.2708  -10.8214    1.1971 N.pl3     1 <0>        -0.5085
     19 C13         2.0829  -10.9297    2.2657 C.2       1 <0>         0.4311
     20 C14         2.6446  -12.1190    2.7668 C.2       1 <0>        -0.2684
     21 C15         2.4834  -13.4206    2.2615 C.2       1 <0>         0.1481
     22 N4          3.1638  -14.2658    2.9994 N.2       1 <0>        -0.4842
     23 C16         3.8078  -13.6545    4.0085 C.ar      1 <0>         0.0554
     24 C17         3.5327  -12.2690    3.9287 C.ar      1 <0>        -0.0848
     25 C18         4.0847  -11.3923    4.8584 C.ar      1 <0>        -0.1003
     26 C19         4.8964  -11.8771    5.8461 C.ar      1 <0>        -0.1199
     27 C20         5.1744  -13.2361    5.9287 C.ar      1 <0>        -0.1261
     28 C21         4.6393  -14.1191    5.0365 C.ar      1 <0>        -0.0765
     29 O2          2.2637   -9.6952    2.7628 O.3       1 <0>        -0.1932
     30 C22         1.4473   -2.9815   -2.1173 C.3       1 <0>        -0.1131
     31 H2          0.9895    1.7235    0.5280 H         1 <0>         0.0733
     32 H3          0.2437    1.7519   -1.0879 H         1 <0>         0.0682
     33 H4         -0.7821    1.7834    0.3664 H         1 <0>         0.0684
     34 H5          1.3198   -0.3024   -1.8055 H         1 <0>         0.1276
     35 H6         -1.1465   -0.2268    1.6738 H         1 <0>         0.1271
     36 H7         -0.8528   -2.9883    2.8675 H         1 <0>         0.0863
     37 H8         -2.3668   -2.3309    2.2012 H         1 <0>         0.0641
     38 H9         -1.7327   -3.8837    1.6055 H         1 <0>         0.0555
     39 H10        -0.3711   -4.7528   -0.8619 H         1 <0>         0.4110
     40 H11        -1.6627   -6.6802    0.3775 H         1 <0>         0.0826
     41 H12        -0.9693   -8.1311    1.1405 H         1 <0>         0.0837
     42 H13        -1.3952   -6.7189    2.1368 H         1 <0>         0.0824
     43 H14         0.9633  -11.5450    0.6290 H         1 <0>         0.4718
     44 H15         1.8902  -13.6847    1.3985 H         1 <0>         0.1645
     45 H16         3.8733  -10.3348    4.7996 H         1 <0>         0.1145
     46 H17         5.3254  -11.1980    6.5680 H         1 <0>         0.1221
     47 H18         5.8181  -13.6000    6.7158 H         1 <0>         0.1239
     48 H19         4.8668  -15.1720    5.1144 H         1 <0>         0.1235
     49 H20         2.4605   -3.1975   -1.7784 H         1 <0>         0.0734
     50 H21         0.9224   -3.9167   -2.3125 H         1 <0>         0.0616
     51 H22         1.4885   -2.3902   -3.0320 H         1 <0>         0.0720
@<TRIPOS>BOND
     1    1    2 1
     2    1   31 1
     3    1   32 1
     4    1   33 1
     5    2    7 ar
     6    2    3 ar
     7    3    4 ar
     8    3   34 1
     9    4    5 ar
    10    4   30 1
    11    5    6 ar
    12    5    9 1
    13    6    7 ar
    14    6    8 1
    15    7   35 1
    16    8   36 1
    17    8   37 1
    18    8   38 1
    19    9   10 am
    20    9   39 1
    21   10   11 2
    22   10   12 1
    23   12   13 1
    24   12   14 1
    25   12   15 1
    26   14   40 1
    27   14   41 1
    28   14   42 1
    29   15   16 1
    30   16   29 1
    31   16   17 2
    32   17   18 1
    33   18   19 1
    34   18   43 1
    35   19   20 2
    36   19   29 1
    37   20   24 1
    38   20   21 1
    39   21   22 2
    40   21   44 1
    41   22   23 1
    42   23   28 ar
    43   23   24 ar
    44   24   25 ar
    45   25   26 ar
    46   25   45 1
    47   26   27 ar
    48   26   46 1
    49   27   28 ar
    50   27   47 1
    51   28   48 1
    52   30   49 1
    53   30   50 1
    54   30   51 1
@<TRIPOS>MOLECULE
ZINC04148839
   43    46     0     0     0
SMALL
USER_CHARGES
4-[3-nitro-4-(3-pyridylmethylamino)phenyl]-2H-phthalazin-1-one
@<TRIPOS>ATOM
      1 C1         -0.3330    3.1228    4.3277 C.ar      1 <0>        -0.0829
      2 C2         -0.4852    4.4588    4.6750 C.ar      1 <0>        -0.1078
      3 C3         -0.2035    5.4569    3.7684 C.ar      1 <0>        -0.0512
      4 C4          0.2386    5.1194    2.4899 C.ar      1 <0>        -0.1238
      5 C5          0.3935    3.7611    2.1364 C.ar      1 <0>        -0.0564
      6 C6          0.1025    2.7676    3.0701 C.ar      1 <0>        -0.1065
      7 C7          0.8619    3.4371    0.7810 C.2       1 <0>         0.1880
      8 N1          1.1295    4.4008   -0.0632 N.2       1 <0>        -0.2234
      9 N2          0.9779    5.7484    0.2645 N.am      1 <0>        -0.5322
     10 H1          1.1894    6.4426   -0.4236 H         1 <0>         0.4456
     11 C8          0.5542    6.1413    1.4831 C.2       1 <0>         0.5304
     12 O1          0.4354    7.3250    1.7449 O.2       1 <0>        -0.5165
     13 C9          1.0362    2.0238    0.3739 C.ar      1 <0>        -0.0916
     14 C10         2.1394    1.6487   -0.3939 C.ar      1 <0>         0.0164
     15 C11         2.2993    0.3332   -0.7714 C.ar      1 <0>        -0.1944
     16 C12         1.3620   -0.6202   -0.3885 C.ar      1 <0>         0.2938
     17 C13         0.2618   -0.2490    0.3762 C.ar      1 <0>        -0.1176
     18 C14         0.0975    1.0655    0.7567 C.ar      1 <0>         0.0084
     19 N3         -0.7342   -1.2662    0.7816 N.pl3     1 <0>         0.0360
     20 O2         -1.9181   -0.9816    0.8109 O.2       1 <0>        -0.1437
     21 O3         -0.3698   -2.3879    1.0858 O.3       1 <0>        -0.1757
     22 N4          1.5258   -1.9513   -0.7727 N.pl3     1 <0>        -0.7184
     23 C15         2.7458   -2.3681   -1.4684 C.3       1 <0>         0.1634
     24 C16         2.6736   -3.8430   -1.7693 C.ar      1 <0>        -0.1719
     25 C17         3.1627   -4.7697   -0.8609 C.ar      1 <0>        -0.0489
     26 C18         3.0710   -6.1161   -1.1778 C.ar      1 <0>        -0.1722
     27 C19         2.5081   -6.4872   -2.3846 C.ar      1 <0>         0.1126
     28 N5          2.0578   -5.5780   -3.2266 N.ar      1 <0>        -0.4842
     29 C20         2.1245   -4.2888   -2.9563 C.ar      1 <0>         0.1214
     30 H2         -0.5590    2.3538    5.0515 H         1 <0>         0.1386
     31 H3         -0.8281    4.7178    5.6658 H         1 <0>         0.1403
     32 H4         -0.3240    6.4936    4.0461 H         1 <0>         0.1460
     33 H5          0.2176    1.7260    2.8089 H         1 <0>         0.1383
     34 H6          2.8671    2.3888   -0.6921 H         1 <0>         0.1503
     35 H7          3.1531    0.0423   -1.3654 H         1 <0>         0.1529
     36 H8         -0.7597    1.3542    1.3469 H         1 <0>         0.1561
     37 H9          0.8318   -2.6009   -0.5792 H         1 <0>         0.4145
     38 H10         2.8407   -1.8113   -2.4007 H         1 <0>         0.0845
     39 H11         3.6109   -2.1682   -0.8362 H         1 <0>         0.0852
     40 H12         3.6010   -4.4501    0.0730 H         1 <0>         0.1386
     41 H13         3.4384   -6.8655   -0.4924 H         1 <0>         0.1411
     42 H14         2.4367   -7.5339   -2.6408 H         1 <0>         0.1607
     43 H15         1.7451   -3.5733   -3.6709 H         1 <0>         0.1562
@<TRIPOS>BOND
     1    1    6 ar
     2    1    2 ar
     3    1   30 1
     4    2    3 ar
     5    2   31 1
     6    3    4 ar
     7    3   32 1
     8    4   11 1
     9    4    5 ar
    10    5    6 ar
    11    5    7 1
    12    6   33 1
    13    7    8 2
    14    7   13 1
    15    8    9 1
    16    9   10 1
    17    9   11 am
    18   11   12 2
    19   13   18 ar
    20   13   14 ar
    21   14   15 ar
    22   14   34 1
    23   15   16 ar
    24   15   35 1
    25   16   17 ar
    26   16   22 1
    27   17   18 ar
    28   17   19 1
    29   18   36 1
    30   19   20 2
    31   19   21 1
    32   22   23 1
    33   22   37 1
    34   23   24 1
    35   23   38 1
    36   23   39 1
    37   24   29 ar
    38   24   25 ar
    39   25   26 ar
    40   25   40 1
    41   26   27 ar
    42   26   41 1
    43   27   28 ar
    44   27   42 1
    45   28   29 ar
    46   29   43 1
@<TRIPOS>MOLECULE
ZINC06868229
   45    48     0     0     0
SMALL
USER_CHARGES
3-(4-ethoxyphenyl)-5-[3-(o-tolyl)-1,2,4-oxadiazol-5-yl]-triazol-4-amine
@<TRIPOS>ATOM
      1 C1          4.3949    8.8576    0.6198 C.3       1 <0>        -0.1546
      2 C2          4.1110    7.3582    0.7297 C.3       1 <0>         0.0511
      3 O1          2.9171    7.0453    0.0096 O.3       1 <0>        -0.3088
      4 C3          2.5209    5.7449    0.0067 C.ar      1 <0>         0.1445
      5 C4          1.3704    5.3720   -0.6732 C.ar      1 <0>        -0.1284
      6 C5          0.9674    4.0514   -0.6760 C.ar      1 <0>        -0.0544
      7 C6          1.7136    3.0967    0.0016 C.ar      1 <0>         0.0947
      8 C7          2.8615    3.4713    0.6865 C.ar      1 <0>        -0.0915
      9 C8          3.2669    4.7912    0.6840 C.ar      1 <0>        -0.1860
     10 N1          1.3043    1.7544   -0.0010 N.pl3     1 <0>        -0.3440
     11 C9          2.1130    0.6576   -0.0146 C.2       1 <0>         0.3973
     12 C10         1.2720   -0.4458   -0.0125 C.2       1 <0>        -0.0640
     13 N2          0.0021   -0.0041    0.0020 N.2       1 <0>        -0.1415
     14 N3         -0.0154    1.2821    0.0091 N.2       1 <0>        -0.0527
     15 C11         1.6960   -1.8547   -0.0245 C.2       1 <0>         0.2863
     16 N4          0.9062   -2.9164   -0.0227 N.2       1 <0>        -0.4505
     17 C12         1.7345   -3.9810   -0.0368 C.2       1 <0>         0.2307
     18 N5          2.9604   -3.5235   -0.0463 N.2       1 <0>        -0.3720
     19 O2          2.9594   -2.3108   -0.0454 O.3       1 <0>         0.0616
     20 C13         1.3296   -5.4092   -0.0408 C.ar      1 <0>        -0.0335
     21 C14        -0.0205   -5.7532   -0.0237 C.ar      1 <0>        -0.0678
     22 C15        -0.3915   -7.0824   -0.0328 C.ar      1 <0>        -0.1300
     23 C16         0.5745   -8.0726   -0.0483 C.ar      1 <0>        -0.0932
     24 C17         1.9160   -7.7367   -0.0596 C.ar      1 <0>        -0.1267
     25 C18         2.2981   -6.4102   -0.0559 C.ar      1 <0>        -0.0468
     26 C19         3.7603   -6.0457   -0.0687 C.3       1 <0>        -0.1304
     27 N6          3.4958    0.6467   -0.0282 N.pl3     1 <0>        -0.8179
     28 H1          5.3056    9.0962    1.1691 H         1 <0>         0.0815
     29 H2          4.5217    9.1274   -0.4287 H         1 <0>         0.0683
     30 H3          3.5596    9.4173    1.0405 H         1 <0>         0.0686
     31 H4          3.9842    7.0884    1.7782 H         1 <0>         0.0659
     32 H5          4.9464    6.7984    0.3090 H         1 <0>         0.0657
     33 H6          0.7902    6.1147   -1.2006 H         1 <0>         0.1480
     34 H7          0.0716    3.7612   -1.2049 H         1 <0>         0.1487
     35 H8          3.4398    2.7297    1.2175 H         1 <0>         0.1341
     36 H9          4.1624    5.0820    1.2131 H         1 <0>         0.1431
     37 H10        -0.7754   -4.9809   -0.0071 H         1 <0>         0.1378
     38 H11        -1.4377   -7.3501   -0.0234 H         1 <0>         0.1315
     39 H12         0.2799   -9.1116   -0.0513 H         1 <0>         0.1287
     40 H13         2.6661   -8.5137   -0.0710 H         1 <0>         0.1301
     41 H14         4.1232   -5.9634    0.9558 H         1 <0>         0.0743
     42 H15         4.3228   -6.8187   -0.5924 H         1 <0>         0.0685
     43 H16         3.8924   -5.0916   -0.5788 H         1 <0>         0.0913
     44 H17         3.9740   -0.1971   -0.0373 H         1 <0>         0.4289
     45 H18         3.9874    1.4829   -0.0288 H         1 <0>         0.4134
@<TRIPOS>BOND
     1    1    2 1
     2    1   28 1
     3    1   29 1
     4    1   30 1
     5    2    3 1
     6    2   31 1
     7    2   32 1
     8    3    4 1
     9    4    9 ar
    10    4    5 ar
    11    5    6 ar
    12    5   33 1
    13    6    7 ar
    14    6   34 1
    15    7    8 ar
    16    7   10 1
    17    8    9 ar
    18    8   35 1
    19    9   36 1
    20   10   14 1
    21   10   11 1
    22   11   12 2
    23   11   27 1
    24   12   13 1
    25   12   15 1
    26   13   14 2
    27   15   19 1
    28   15   16 2
    29   16   17 1
    30   17   18 2
    31   17   20 1
    32   18   19 1
    33   20   25 ar
    34   20   21 ar
    35   21   22 ar
    36   21   37 1
    37   22   23 ar
    38   22   38 1
    39   23   24 ar
    40   23   39 1
    41   24   25 ar
    42   24   40 1
    43   25   26 1
    44   26   41 1
    45   26   42 1
    46   26   43 1
    47   27   44 1
    48   27   45 1
@<TRIPOS>MOLECULE
ZINC16292705
   42    44     0     0     0
SMALL
USER_CHARGES

@<TRIPOS>ATOM
      1 C1         -0.0184    1.5028    0.0103 C.3       1 <0>        -0.1134
      2 C2          0.0021   -0.0041    0.0020 C.ar      1 <0>        -0.1035
      3 C3          0.0057   -0.6874   -1.2002 C.ar      1 <0>        -0.0987
      4 C4          0.0239   -2.0683   -1.2112 C.ar      1 <0>        -0.1268
      5 C5          0.0391   -2.7707   -0.0132 C.ar      1 <0>         0.1647
      6 C6          0.0359   -2.0814    1.1924 C.ar      1 <0>        -0.1460
      7 C7          0.0229   -0.7004    1.1966 C.ar      1 <0>        -0.0954
      8 N1          0.0572   -4.1710   -0.0209 N.am      1 <0>        -0.4008
      9 C8          0.0675   -4.9495    1.0800 C.2       1 <0>         0.5315
     10 O1          0.0632   -4.5774    2.2416 O.2       1 <0>        -0.5221
     11 C9          0.0844   -6.3356    0.5970 C.2       1 <0>        -0.3505
     12 C10         0.0987   -7.4937    1.3569 C.2       1 <0>         0.2860
     13 N2          0.0986   -7.4167    2.7037 N.pl3     1 <0>        -0.6099
     14 C11         0.1132   -8.5864    3.4713 C.ar      1 <0>         0.1752
     15 C12         0.1334   -9.8268    2.8491 C.ar      1 <0>        -0.1529
     16 C13         0.1477  -10.9804    3.6095 C.ar      1 <0>        -0.0200
     17 C14         0.1419  -10.9030    4.9902 C.ar      1 <0>        -0.0588
     18 C15         0.1217   -9.6711    5.6174 C.ar      1 <0>        -0.0443
     19 C16         0.1131   -8.5092    4.8627 C.ar      1 <0>         0.0806
     20 O2          0.0989   -7.2969    5.4780 O.3       1 <0>        -0.4767
     21 N3          0.1567  -12.1426    5.7990 N.pl3     1 <0>         0.0347
     22 O3          0.1740  -13.2209    5.2524 O.2       1 <0>        -0.1506
     23 O4          0.1516  -12.0769    7.0062 O.3       1 <0>        -0.1535
     24 C17         0.0821   -6.2267   -0.8693 C.2       1 <0>         0.1584
     25 N4          0.0611   -4.9637   -1.1683 N.2       1 <0>        -0.2537
     26 C18         0.0962   -7.3731   -1.8474 C.3       1 <0>        -0.0838
     27 H1          1.0042    1.8801    0.0026 H         1 <0>         0.0705
     28 H2         -0.5455    1.8639   -0.8728 H         1 <0>         0.0667
     29 H3         -0.5286    1.8543    0.9071 H         1 <0>         0.0664
     30 H4         -0.0061   -0.1407   -2.1315 H         1 <0>         0.1290
     31 H5          0.0260   -2.6015   -2.1504 H         1 <0>         0.1347
     32 H6          0.0477   -2.6247    2.1257 H         1 <0>         0.1517
     33 H7          0.0244   -0.1637    2.1338 H         1 <0>         0.1289
     34 H8          0.1100   -8.4582    0.8712 H         1 <0>         0.1806
     35 H9          0.0885   -6.5504    3.1400 H         1 <0>         0.4387
     36 H10         0.1377   -9.8904    1.7710 H         1 <0>         0.1599
     37 H11         0.1631  -11.9451    3.1242 H         1 <0>         0.1672
     38 H12         0.1168   -9.6144    6.6959 H         1 <0>         0.1692
     39 H13        -0.7885   -6.9568    5.6566 H         1 <0>         0.4012
     40 H14        -0.9280   -7.6626   -2.0826 H         1 <0>         0.0924
     41 H15         0.6056   -7.0654   -2.7606 H         1 <0>         0.0895
     42 H16         0.6211   -8.2205   -1.4064 H         1 <0>         0.0842
@<TRIPOS>BOND
     1    1    2 1
     2    1   27 1
     3    1   28 1
     4    1   29 1
     5    2    7 ar
     6    2    3 ar
     7    3    4 ar
     8    3   30 1
     9    4    5 ar
    10    4   31 1
    11    5    6 ar
    12    5    8 1
    13    6    7 ar
    14    6   32 1
    15    7   33 1
    16    8   25 1
    17    8    9 am
    18    9   10 2
    19    9   11 1
    20   11   12 2
    21   11   24 1
    22   12   13 1
    23   12   34 1
    24   13   14 1
    25   13   35 1
    26   14   19 ar
    27   14   15 ar
    28   15   16 ar
    29   15   36 1
    30   16   17 ar
    31   16   37 1
    32   17   18 ar
    33   17   21 1
    34   18   19 ar
    35   18   38 1
    36   19   20 1
    37   20   39 1
    38   21   22 2
    39   21   23 1
    40   24   25 2
    41   24   26 1
    42   26   40 1
    43   26   41 1
    44   26   42 1
@<TRIPOS>MOLECULE
ZINC13660048
   45    47     0     0     0
SMALL
USER_CHARGES

@<TRIPOS>ATOM
      1 C1         -0.0173    1.4248    0.0099 C.3       1 <0>         0.0219
      2 O1          0.0021   -0.0041    0.0020 O.3       1 <0>        -0.2985
      3 C2          0.6263   -0.6188    1.0422 C.ar      1 <0>         0.1402
      4 C3          1.2002    0.1371    2.0475 C.ar      1 <0>        -0.1930
      5 C4          1.8414   -0.4952    3.1160 C.ar      1 <0>         0.0001
      6 C5          1.9005   -1.8905    3.1651 C.ar      1 <0>        -0.1945
      7 C6          1.3248   -2.6414    2.1571 C.ar      1 <0>         0.1433
      8 C7          0.6818   -2.0088    1.0967 C.ar      1 <0>         0.0680
      9 O2          0.1114   -2.7497    0.1099 O.3       1 <0>        -0.4693
     10 O3          1.3820   -3.9994    2.2042 O.3       1 <0>        -0.2974
     11 C8          2.0521   -4.5820    3.3238 C.3       1 <0>         0.0196
     12 C9          2.4551    0.3086    4.1899 C.2       1 <0>         0.2016
     13 C10         3.0771   -0.3347    5.2145 C.2       1 <0>        -0.2966
     14 C11         3.6715    0.4194    6.2535 C.2       1 <0>         0.4258
     15 O4          4.2380   -0.1247    7.1877 O.2       1 <0>        -0.4509
     16 C12         3.5806    1.8868    6.1638 C.ar      1 <0>        -0.2799
     17 C13         2.9148    2.4513    5.0616 C.ar      1 <0>         0.2026
     18 O5          2.3830    1.6470    4.1158 O.3       1 <0>        -0.2165
     19 C14         2.8169    3.8298    4.9562 C.ar      1 <0>        -0.2375
     20 C15         3.3725    4.6424    5.9319 C.ar      1 <0>         0.1925
     21 C16         4.0332    4.0870    7.0258 C.ar      1 <0>         0.0075
     22 C17         4.1408    2.7106    7.1469 C.ar      1 <0>         0.2246
     23 O6          4.7837    2.1653    8.2120 O.3       1 <0>        -0.4634
     24 O7          4.5741    4.8975    7.9767 O.3       1 <0>        -0.3121
     25 C18         3.7359    5.2554    9.0773 C.3       1 <0>         0.0340
     26 O8          3.2723    5.9924    5.8205 O.3       1 <0>        -0.2898
     27 C19         2.5834    6.4997    4.6759 C.3       1 <0>         0.0172
     28 H1          1.0053    1.8021    0.0021 H         1 <0>         0.0596
     29 H2         -0.5445    1.7859   -0.8732 H         1 <0>         0.1070
     30 H3         -0.5275    1.7763    0.9067 H         1 <0>         0.0599
     31 H4          1.1533    1.2153    2.0068 H         1 <0>         0.1472
     32 H5          2.3957   -2.3819    3.9896 H         1 <0>         0.1481
     33 H6          0.7069   -2.9513   -0.6248 H         1 <0>         0.3888
     34 H7          1.5537   -4.2777    4.2442 H         1 <0>         0.0612
     35 H8          2.0254   -5.6683    3.2382 H         1 <0>         0.1084
     36 H9          3.0884   -4.2444    3.3430 H         1 <0>         0.0607
     37 H10         3.1167   -1.4137    5.2349 H         1 <0>         0.1635
     38 H11         2.3074    4.2713    4.1125 H         1 <0>         0.1569
     39 H12         5.7303    2.0265    8.0712 H         1 <0>         0.4068
     40 H13         3.4234    4.3539    9.6043 H         1 <0>         0.0505
     41 H14         4.2882    5.9019    9.7594 H         1 <0>         0.0978
     42 H15         2.8569    5.7835    8.7079 H         1 <0>         0.0467
     43 H16         2.5757    7.5891    4.7097 H         1 <0>         0.1101
     44 H17         3.0907    6.1679    3.7700 H         1 <0>         0.0641
     45 H18         1.5584    6.1289    4.6749 H         1 <0>         0.0631
@<TRIPOS>BOND
     1    1    2 1
     2    1   28 1
     3    1   29 1
     4    1   30 1
     5    2    3 1
     6    3    8 ar
     7    3    4 ar
     8    4    5 ar
     9    4   31 1
    10    5    6 ar
    11    5   12 1
    12    6    7 ar
    13    6   32 1
    14    7    8 ar
    15    7   10 1
    16    8    9 1
    17    9   33 1
    18   10   11 1
    19   11   34 1
    20   11   35 1
    21   11   36 1
    22   12   18 1
    23   12   13 2
    24   13   14 1
    25   13   37 1
    26   14   15 2
    27   14   16 1
    28   16   22 ar
    29   16   17 ar
    30   17   18 1
    31   17   19 ar
    32   19   20 ar
    33   19   38 1
    34   20   21 ar
    35   20   26 1
    36   21   22 ar
    37   21   24 1
    38   22   23 1
    39   23   39 1
    40   24   25 1
    41   25   40 1
    42   25   41 1
    43   25   42 1
    44   26   27 1
    45   27   43 1
    46   27   44 1
    47   27   45 1
@<TRIPOS>MOLECULE
ZINC53047825
   39    42     0     0     0
SMALL
USER_CHARGES

@<TRIPOS>ATOM
      1 C1         -0.0187    1.5258    0.0104 C.3       1 <0>        -0.1524
      2 C2          0.0021   -0.0041    0.0020 C.3       1 <0>        -0.0080
      3 H1         -1.0205   -0.3814    0.0098 H         1 <0>         0.1521
      4 C3          0.7309   -0.5033    1.2229 C.2       1 <0>         0.3099
      5 N1          0.1774   -1.0330    2.2762 N.2       1 <0>        -0.5159
      6 C4          1.1217   -1.3666    3.1742 C.2       1 <0>         0.3010
      7 N2          2.2947   -1.0451    2.6872 N.2       1 <0>        -0.3243
      8 O1          2.0575   -0.4824    1.4055 O.3       1 <0>        -0.0901
      9 C5          0.8756   -1.9935    4.4969 C.ar      1 <0>        -0.0434
     10 C6         -0.4249   -2.2917    4.8981 C.ar      1 <0>        -0.0639
     11 C7         -0.6480   -2.8746    6.1292 C.ar      1 <0>        -0.1252
     12 C8          0.4166   -3.1623    6.9641 C.ar      1 <0>        -0.0900
     13 C9          1.7097   -2.8684    6.5707 C.ar      1 <0>        -0.1239
     14 C10         1.9447   -2.2911    5.3392 C.ar      1 <0>        -0.0753
     15 S1          0.8511   -0.5891   -1.4904 S.3       1 <0>         0.0842
     16 C11        -0.1893   -0.0568   -2.8091 C.2       1 <0>         0.1893
     17 N3         -1.3126    0.6150   -2.6926 N.2       1 <0>        -0.2760
     18 N4         -1.8164    0.8398   -3.8532 N.2       1 <0>        -0.2328
     19 C12        -1.0443    0.3246   -4.7849 C.2       1 <0>         0.2343
     20 N5          0.0253   -0.2607   -4.1435 N.pl3     1 <0>        -0.2987
     21 N6          1.0785   -0.9117   -4.7204 N.3       1 <0>        -0.5787
     22 C13        -1.2758    0.3701   -6.2370 C.2       1 <0>         0.0230
     23 C14        -2.1543    1.1879   -6.8821 C.2       1 <0>        -0.1214
     24 C15        -2.0462    0.8960   -8.2555 C.2       1 <0>        -0.2101
     25 C16        -1.1188   -0.0738   -8.3822 C.2       1 <0>        -0.0073
     26 O2         -0.6516   -0.3858   -7.1620 O.3       1 <0>        -0.1838
     27 H2          1.0039    1.9031    0.0027 H         1 <0>         0.0791
     28 H3         -0.5459    1.8868   -0.8726 H         1 <0>         0.0978
     29 H4         -0.5289    1.8773    0.9072 H         1 <0>         0.0828
     30 H5         -1.2568   -2.0668    4.2473 H         1 <0>         0.1396
     31 H6         -1.6556   -3.1062    6.4412 H         1 <0>         0.1341
     32 H7          0.2375   -3.6178    7.9268 H         1 <0>         0.1310
     33 H8          2.5373   -3.0948    7.2266 H         1 <0>         0.1336
     34 H9          2.9551   -2.0665    5.0310 H         1 <0>         0.1326
     35 H10         0.8815   -1.8956   -4.8259 H         1 <0>         0.3711
     36 H11         1.3200   -0.4942   -5.6067 H         1 <0>         0.3826
     37 H12        -2.8074    1.9184   -6.4279 H         1 <0>         0.1652
     38 H13        -2.6020    1.3612   -9.0562 H         1 <0>         0.1625
     39 H14        -0.8008   -0.5229   -9.3115 H         1 <0>         0.2156
@<TRIPOS>BOND
     1    1    2 1
     2    1   27 1
     3    1   28 1
     4    1   29 1
     5    2    3 1
     6    2    4 1
     7    2   15 1
     8    4    8 1
     9    4    5 2
    10    5    6 1
    11    6    7 2
    12    6    9 1
    13    7    8 1
    14    9   14 ar
    15    9   10 ar
    16   10   11 ar
    17   10   30 1
    18   11   12 ar
    19   11   31 1
    20   12   13 ar
    21   12   32 1
    22   13   14 ar
    23   13   33 1
    24   14   34 1
    25   15   16 1
    26   16   20 1
    27   16   17 2
    28   17   18 1
    29   18   19 2
    30   19   20 1
    31   19   22 1
    32   20   21 1
    33   21   35 1
    34   21   36 1
    35   22   26 1
    36   22   23 2
    37   23   24 1
    38   23   37 1
    39   24   25 2
    40   24   38 1
    41   25   26 1
    42   25   39 1
@<TRIPOS>MOLECULE
ZINC67408511
   46    48     0     0     0
SMALL
USER_CHARGES

@<TRIPOS>ATOM
      1 C1          0.3303    2.6458   -1.0831 C.3       1 <0>        -0.1623
      2 C2          0.4287    1.1254   -0.9432 C.3       1 <0>         0.1939
      3 H1          0.9387    0.7126   -1.8136 H         1 <0>         0.1190
      4 C3          1.2055    0.7849    0.3025 C.ar      1 <0>        -0.0831
      5 C4          0.9483   -0.3952    0.9760 C.ar      1 <0>        -0.1123
      6 C5          1.6592   -0.7105    2.1190 C.ar      1 <0>        -0.1010
      7 C6          2.6284    0.1534    2.5915 C.ar      1 <0>        -0.1442
      8 C7          2.8882    1.3377    1.9178 C.ar      1 <0>         0.1081
      9 C8          2.1775    1.6490    0.7674 C.ar      1 <0>        -0.1382
     10 O1          3.8410    2.1891    2.3805 O.3       1 <0>        -0.4993
     11 N1         -0.9177    0.5555   -0.8502 N.am      1 <0>        -0.6176
     12 C9         -1.8484    1.0381    0.1731 C.3       1 <0>         0.0725
     13 C10        -1.3001   -0.4129   -1.7060 C.2       1 <0>         0.7079
     14 O2         -0.5277   -0.8135   -2.5553 O.2       1 <0>        -0.5656
     15 N2         -2.5387   -0.9372   -1.6205 N.am      1 <0>        -0.6859
     16 C11        -2.9679   -1.8764   -2.5655 C.ar      1 <0>         0.1665
     17 C12        -2.0696   -2.8018   -3.0831 C.ar      1 <0>        -0.0905
     18 C13        -2.4890   -3.7312   -4.0159 C.ar      1 <0>        -0.0969
     19 C14        -3.8027   -3.7459   -4.4398 C.ar      1 <0>        -0.0746
     20 C15        -4.7117   -2.8207   -3.9263 C.ar      1 <0>        -0.0215
     21 C16        -4.2903   -1.8871   -2.9808 C.ar      1 <0>        -0.1325
     22 C17        -6.1208   -2.8342   -4.3796 C.2       1 <0>         0.2928
     23 N3         -6.5857   -3.4009   -5.4728 N.2       1 <0>        -0.3204
     24 N4         -7.8544   -3.2252   -5.5657 N.2       1 <0>        -0.0346
     25 N5         -8.2887   -2.5466   -4.5596 N.2       1 <0>        -0.0809
     26 N6         -7.1774   -2.2700   -3.7441 N.pl3     1 <0>        -0.3779
     27 C18        -7.1636   -1.5288   -2.4805 C.3       1 <0>         0.0787
     28 H2          1.3321    3.0699   -1.1523 H         1 <0>         0.0763
     29 H3         -0.2315    2.8921   -1.9841 H         1 <0>         0.0662
     30 H4         -0.1797    3.0586   -0.2127 H         1 <0>         0.0640
     31 H5          0.1907   -1.0715    0.6086 H         1 <0>         0.1194
     32 H6          1.4565   -1.6328    2.6432 H         1 <0>         0.1272
     33 H7          3.1829   -0.0930    3.4849 H         1 <0>         0.1290
     34 H8          2.3813    2.5683    0.2384 H         1 <0>         0.1341
     35 H9          4.7240    2.0229    2.0233 H         1 <0>         0.3928
     36 H10        -2.4981    1.8003   -0.2571 H         1 <0>         0.0622
     37 H11        -2.4536    0.2068    0.5349 H         1 <0>         0.0655
     38 H12        -1.2860    1.4662    1.0029 H         1 <0>         0.0837
     39 H13        -3.1328   -0.6638   -0.9041 H         1 <0>         0.4081
     40 H14        -1.0405   -2.7944   -2.7556 H         1 <0>         0.1489
     41 H15        -1.7866   -4.4481   -4.4149 H         1 <0>         0.1406
     42 H16        -4.1267   -4.4735   -5.1692 H         1 <0>         0.1428
     43 H17        -4.9910   -1.1716   -2.5764 H         1 <0>         0.1335
     44 H18        -6.9700   -0.4748   -2.6797 H         1 <0>         0.0945
     45 H19        -8.1298   -1.6339   -1.9870 H         1 <0>         0.1077
     46 H20        -6.3806   -1.9263   -1.8347 H         1 <0>         0.1037
@<TRIPOS>BOND
     1    1    2 1
     2    1   28 1
     3    1   29 1
     4    1   30 1
     5    2    3 1
     6    2    4 1
     7    2   11 1
     8    4    9 ar
     9    4    5 ar
    10    5    6 ar
    11    5   31 1
    12    6    7 ar
    13    6   32 1
    14    7    8 ar
    15    7   33 1
    16    8    9 ar
    17    8   10 1
    18    9   34 1
    19   10   35 1
    20   11   12 1
    21   11   13 am
    22   12   36 1
    23   12   37 1
    24   12   38 1
    25   13   14 2
    26   13   15 am
    27   15   16 1
    28   15   39 1
    29   16   21 ar
    30   16   17 ar
    31   17   18 ar
    32   17   40 1
    33   18   19 ar
    34   18   41 1
    35   19   20 ar
    36   19   42 1
    37   20   21 ar
    38   20   22 1
    39   21   43 1
    40   22   26 1
    41   22   23 2
    42   23   24 1
    43   24   25 2
    44   25   26 1
    45   26   27 1
    46   27   44 1
    47   27   45 1
    48   27   46 1
@<TRIPOS>MOLECULE
ZINC10273059
   39    42     0     0     0
SMALL
USER_CHARGES
5-[3-(4-fluorophenyl)-1,2,4-oxadiazol-5-yl]-3-(4-methoxyphenyl)triazol-4-amine
@<TRIPOS>ATOM
      1 C1         -3.7010   10.0972    0.8068 C.3       1 <0>         0.0225
      2 O1         -4.4551    9.1287    0.0751 O.3       1 <0>        -0.3096
      3 C2         -3.9796    7.8552    0.0655 C.ar      1 <0>         0.1411
      4 C3         -4.6629    6.8651   -0.6257 C.ar      1 <0>        -0.1276
      5 C4         -4.1801    5.5715   -0.6361 C.ar      1 <0>        -0.0546
      6 C5         -3.0111    5.2617    0.0455 C.ar      1 <0>         0.0951
      7 C6         -2.3309    6.2515    0.7417 C.ar      1 <0>        -0.0921
      8 C7         -2.8115    7.5459    0.7472 C.ar      1 <0>        -0.1850
      9 N1         -2.5203    3.9470    0.0356 N.pl3     1 <0>        -0.3439
     10 C8         -1.2115    3.5675    0.0330 C.2       1 <0>         0.3983
     11 C9         -1.2088    2.1801    0.0199 C.2       1 <0>        -0.0653
     12 N2         -2.4859    1.7591    0.0243 N.2       1 <0>        -0.1409
     13 N3         -3.2814    2.7699    0.0336 N.2       1 <0>        -0.0514
     14 C10        -0.0159    1.3190    0.0093 C.2       1 <0>         0.2881
     15 N4          0.0021   -0.0041    0.0020 N.2       1 <0>        -0.4499
     16 C11         1.3069   -0.3462   -0.0123 C.2       1 <0>         0.2261
     17 N5          2.0025    0.7624   -0.0130 N.2       1 <0>        -0.3742
     18 O2          1.2647    1.7247   -0.0008 O.3       1 <0>         0.0709
     19 C12         1.8531   -1.7261   -0.0249 C.ar      1 <0>        -0.0376
     20 C13         0.9894   -2.8195   -0.0167 C.ar      1 <0>        -0.0420
     21 C14         1.5013   -4.1005   -0.0329 C.ar      1 <0>        -0.1558
     22 C15         2.8724   -4.3007   -0.0470 C.ar      1 <0>         0.1213
     23 C16         3.7348   -3.2162   -0.0504 C.ar      1 <0>        -0.1565
     24 C17         3.2312   -1.9319   -0.0392 C.ar      1 <0>        -0.0524
     25 F1          3.3696   -5.5568   -0.0572 F         1 <0>        -0.1329
     26 N6         -0.1067    4.3990    0.0389 N.pl3     1 <0>        -0.8177
     27 H1         -3.6438    9.7980    1.8534 H         1 <0>         0.0598
     28 H2         -2.6950   10.1632    0.3923 H         1 <0>         0.0596
     29 H3         -4.1890   11.0691    0.7329 H         1 <0>         0.1061
     30 H4         -5.5723    7.1062   -1.1559 H         1 <0>         0.1484
     31 H5         -4.7120    4.8009   -1.1741 H         1 <0>         0.1490
     32 H6         -1.4238    6.0100    1.2758 H         1 <0>         0.1343
     33 H7         -2.2800    8.3169    1.2851 H         1 <0>         0.1439
     34 H8         -0.0793   -2.6644   -0.0015 H         1 <0>         0.1492
     35 H9          0.8325   -4.9485   -0.0307 H         1 <0>         0.1462
     36 H10         4.8028   -3.3766   -0.0615 H         1 <0>         0.1449
     37 H11         3.9041   -1.0871   -0.0411 H         1 <0>         0.1417
     38 H12         0.7860    4.0196    0.0335 H         1 <0>         0.4289
     39 H13        -0.2243    5.3618    0.0486 H         1 <0>         0.4137
@<TRIPOS>BOND
     1    1    2 1
     2    1   27 1
     3    1   28 1
     4    1   29 1
     5    2    3 1
     6    3    8 ar
     7    3    4 ar
     8    4    5 ar
     9    4   30 1
    10    5    6 ar
    11    5   31 1
    12    6    7 ar
    13    6    9 1
    14    7    8 ar
    15    7   32 1
    16    8   33 1
    17    9   13 1
    18    9   10 1
    19   10   11 2
    20   10   26 1
    21   11   12 1
    22   11   14 1
    23   12   13 2
    24   14   18 1
    25   14   15 2
    26   15   16 1
    27   16   17 2
    28   16   19 1
    29   17   18 1
    30   19   24 ar
    31   19   20 ar
    32   20   21 ar
    33   20   34 1
    34   21   22 ar
    35   21   35 1
    36   22   23 ar
    37   22   25 1
    38   23   24 ar
    39   23   36 1
    40   24   37 1
    41   26   38 1
    42   26   39 1
@<TRIPOS>MOLECULE
ZINC24238648
   43    45     0     0     0
SMALL
USER_CHARGES
1-[(1R)-1-(4-imidazol-1-ylphenyl)ethyl]-3-(3-nitrophenyl)urea
@<TRIPOS>ATOM
      1 C1         -3.3748   -2.8321   -1.7780 C.3       1 <0>        -0.1606
      2 C2         -3.5603   -2.4419   -0.3102 C.3       1 <0>         0.2058
      3 H1         -2.7300   -2.8166    0.3063 H         1 <0>         0.1014
      4 C3         -4.8651   -3.0001    0.1968 C.ar      1 <0>        -0.0992
      5 C4         -6.0510   -2.3475   -0.0858 C.ar      1 <0>        -0.0861
      6 C5         -7.2490   -2.8598    0.3728 C.ar      1 <0>        -0.1274
      7 C6         -7.2605   -4.0244    1.1281 C.ar      1 <0>         0.1395
      8 C7         -6.0679   -4.6743    1.4150 C.ar      1 <0>        -0.1276
      9 C8         -4.8735   -4.1606    0.9485 C.ar      1 <0>        -0.0757
     10 N1         -8.4746   -4.5433    1.6007 N.pl3     1 <0>        -0.4146
     11 C9         -9.7216   -4.0094    1.4017 C.2       1 <0>        -0.0553
     12 C10       -10.5977   -4.8235    2.0206 C.2       1 <0>        -0.0184
     13 N2         -9.9092   -5.8231    2.5915 N.2       1 <0>        -0.4825
     14 C11        -8.6367   -5.6665    2.3472 C.2       1 <0>         0.1903
     15 N3         -3.5746   -0.9819   -0.1911 N.am      1 <0>        -0.7455
     16 C12        -2.4148   -0.3026   -0.0909 C.2       1 <0>         0.7114
     17 O1         -1.3568   -0.9016   -0.0993 O.2       1 <0>        -0.5736
     18 N4         -2.4279    1.0406    0.0187 N.am      1 <0>        -0.6982
     19 C13        -1.2246    1.7551    0.0107 C.ar      1 <0>         0.1814
     20 C14        -0.1520    1.3033   -0.7471 C.ar      1 <0>        -0.0735
     21 C15         1.0320    2.0139   -0.7578 C.ar      1 <0>        -0.0941
     22 C16         1.1521    3.1715   -0.0106 C.ar      1 <0>        -0.0736
     23 C17         0.0882    3.6208    0.7494 C.ar      1 <0>        -0.0222
     24 C18        -1.0989    2.9145    0.7643 C.ar      1 <0>        -0.0924
     25 N5          0.2210    4.8602    1.5476 N.pl3     1 <0>         0.0276
     26 O2          1.2672    5.4837    1.5346 O.2       1 <0>        -0.1539
     27 O3         -0.7159    5.2566    2.2173 O.3       1 <0>        -0.1592
     28 H2         -2.4224   -2.4247   -2.1481 H         1 <0>         0.0680
     29 H3         -4.2045   -2.4237   -2.3736 H         1 <0>         0.0613
     30 H4         -3.3641   -3.9284   -1.8674 H         1 <0>         0.0718
     31 H5         -6.0409   -1.4387   -0.6691 H         1 <0>         0.1318
     32 H6         -8.1753   -2.3519    0.1483 H         1 <0>         0.1341
     33 H7         -6.0738   -5.5803    2.0027 H         1 <0>         0.1363
     34 H8         -3.9453   -4.6657    1.1714 H         1 <0>         0.1383
     35 H9         -9.9565   -3.1100    0.8519 H         1 <0>         0.1788
     36 H10       -11.6691   -4.6920    2.0549 H         1 <0>         0.1767
     37 H11        -7.8452   -6.3202    2.6827 H         1 <0>         0.2096
     38 H12        -4.5319   -0.4400   -0.1834 H         1 <0>         0.4160
     39 H13        -3.3844    1.5753    0.1144 H         1 <0>         0.4361
     40 H14        -0.2453    0.3996   -1.3311 H         1 <0>         0.1544
     41 H15         1.8649    1.6655   -1.3504 H         1 <0>         0.1523
     42 H16         2.0789    3.7259   -0.0211 H         1 <0>         0.1554
     43 H17        -1.9298    3.2662    1.3579 H         1 <0>         0.1554
@<TRIPOS>BOND
     1    1    2 1
     2    1   28 1
     3    1   29 1
     4    1   30 1
     5    2    3 1
     6    2    4 1
     7    2   15 1
     8    4    9 ar
     9    4    5 ar
    10    5    6 ar
    11    5   31 1
    12    6    7 ar
    13    6   32 1
    14    7    8 ar
    15    7   10 1
    16    8    9 ar
    17    8   33 1
    18    9   34 1
    19   10   14 1
    20   10   11 1
    21   11   12 2
    22   11   35 1
    23   12   13 1
    24   12   36 1
    25   13   14 2
    26   14   37 1
    27   15   16 am
    28   15   38 1
    29   16   17 2
    30   16   18 am
    31   18   19 1
    32   18   39 1
    33   19   24 ar
    34   19   20 ar
    35   20   21 ar
    36   20   40 1
    37   21   22 ar
    38   21   41 1
    39   22   23 ar
    40   22   42 1
    41   23   24 ar
    42   23   25 1
    43   24   43 1
    44   25   26 2
    45   25   27 1
@<TRIPOS>MOLECULE
ZINC38984261
   44    47     0     0     0
SMALL
USER_CHARGES

@<TRIPOS>ATOM
      1 C1          2.5587    1.6850   -3.7115 C.3       1 <0>         0.0337
      2 O1          2.6531    0.2636   -3.8239 O.3       1 <0>        -0.3494
      3 C2          1.9256   -0.4683   -2.9574 C.2       1 <0>         0.5038
      4 O2          1.2301    0.0852   -2.1290 O.2       1 <0>        -0.4957
      5 C3          1.9735   -1.9415   -3.0145 C.ar      1 <0>        -0.1041
      6 C4          2.7785   -2.5785   -3.9643 C.ar      1 <0>        -0.0654
      7 C5          2.8231   -3.9424   -4.0174 C.ar      1 <0>        -0.0976
      8 C6          2.0637   -4.7024   -3.1213 C.ar      1 <0>        -0.0272
      9 C7          1.2589   -4.0649   -2.1710 C.ar      1 <0>        -0.0819
     10 C8          1.2184   -2.7010   -2.1151 C.ar      1 <0>        -0.0552
     11 C9          2.1112   -6.1733   -3.1786 C.2       1 <0>         0.1125
     12 N1          1.4063   -6.8787   -2.3467 N.2       1 <0>        -0.1538
     13 N2          1.3686   -8.2739   -2.4682 N.pl3     1 <0>        -0.4429
     14 C10         1.9780   -9.0776   -3.5398 C.3       1 <0>         0.2819
     15 H1          3.0590   -8.9381   -3.5532 H         1 <0>         0.1461
     16 N3          1.6414  -10.4709   -3.1857 N.3       1 <0>        -0.4260
     17 N4          0.9184  -10.4048   -2.0292 N.pl3     1 <0>        -0.5163
     18 C11         0.7731   -9.1362   -1.6243 C.2       1 <0>         0.5584
     19 S1         -0.0703   -8.6693   -0.2095 S.2       1 <0>        -0.5281
     20 C12         1.3750   -8.7065   -4.8961 C.3       1 <0>        -0.0634
     21 H2          1.5350   -7.6502   -5.1122 H         1 <0>         0.1634
     22 C13         1.9535   -9.5729   -5.9958 C.2       1 <0>        -0.1372
     23 C14         0.9093  -10.2341   -6.4917 C.2       1 <0>        -0.0609
     24 C15         1.3651  -11.1485   -7.6147 C.3       1 <0>        -0.0501
     25 C16         2.7636  -10.6293   -8.0139 C.3       1 <0>        -0.1179
     26 C17         3.2281   -9.9455   -6.7079 C.3       1 <0>        -0.0621
     27 N5         -0.2239   -9.8736   -5.8298 N.2       1 <0>        -0.1302
     28 N6         -0.0601   -9.0359   -4.9367 N.2       1 <0>        -0.1529
     29 H3          1.5244    1.9936   -3.8637 H         1 <0>         0.0632
     30 H4          2.8876    1.9936   -2.7192 H         1 <0>         0.0634
     31 H5          3.1919    2.1520   -4.4658 H         1 <0>         0.1056
     32 H6          3.3647   -1.9918   -4.6560 H         1 <0>         0.1468
     33 H7          3.4442   -4.4343   -4.7513 H         1 <0>         0.1392
     34 H8          0.6723   -4.6514   -1.4793 H         1 <0>         0.1515
     35 H9          0.6001   -2.2088   -1.3791 H         1 <0>         0.1468
     36 H10         2.7323   -6.6653   -3.9125 H         1 <0>         0.1288
     37 H11         1.1089  -10.9121   -3.9204 H         1 <0>         0.3518
     38 H12         1.4301  -12.1778   -7.2618 H         1 <0>         0.0950
     39 H13         0.6805  -11.0800   -8.4601 H         1 <0>         0.0897
     40 H14         3.4251  -11.4540   -8.2793 H         1 <0>         0.0948
     41 H15         2.6945   -9.9086   -8.8287 H         1 <0>         0.0828
     42 H16         3.8117   -9.0530   -6.9335 H         1 <0>         0.0908
     43 H17         3.8120  -10.6392   -6.1031 H         1 <0>         0.1015
     44 H18         0.5602  -11.1750   -1.5609 H         1 <0>         0.4668
@<TRIPOS>BOND
     1    1    2 1
     2    1   29 1
     3    1   30 1
     4    1   31 1
     5    2    3 1
     6    3    4 2
     7    3    5 1
     8    5   10 ar
     9    5    6 ar
    10    6    7 ar
    11    6   32 1
    12    7    8 ar
    13    7   33 1
    14    8    9 ar
    15    8   11 1
    16    9   10 ar
    17    9   34 1
    18   10   35 1
    19   11   12 2
    20   11   36 1
    21   12   13 1
    22   13   18 1
    23   13   14 1
    24   14   15 1
    25   14   16 1
    26   14   20 1
    27   16   17 1
    28   16   37 1
    29   17   18 1
    30   17   44 1
    31   18   19 2
    32   20   21 1
    33   20   28 1
    34   20   22 1
    35   22   26 1
    36   22   23 2
    37   23   24 1
    38   23   27 1
    39   24   25 1
    40   24   38 1
    41   24   39 1
    42   25   26 1
    43   25   40 1
    44   25   41 1
    45   26   42 1
    46   26   43 1
    47   27   28 2
@<TRIPOS>MOLECULE
ZINC08020748
   44    47     0     0     0
SMALL
USER_CHARGES

@<TRIPOS>ATOM
      1 C1          0.1551    1.0367   -0.2932 C.3       1 <0>        -0.1307
      2 C2         -0.0613   -0.4386   -0.0746 C.2       1 <0>         0.1861
      3 C3         -1.3076   -0.8824    0.1736 C.2       1 <0>        -0.2300
      4 C4         -1.5286   -2.2700    0.3819 C.2       1 <0>         0.4526
      5 O1         -2.6473   -2.7040    0.6087 O.2       1 <0>        -0.4831
      6 C5         -0.3724   -3.1600    0.3151 C.2       1 <0>        -0.3921
      7 C6          0.8867   -2.6135    0.0520 C.2       1 <0>         0.4401
      8 N1          1.0079   -1.2751   -0.1403 N.pl3     1 <0>        -0.5778
      9 H1          1.8847   -0.9041   -0.3262 H         1 <0>         0.4199
     10 N2          1.7868   -3.6400    0.0412 N.pl3     1 <0>        -0.4820
     11 H2          2.7392   -3.5458   -0.1174 H         1 <0>         0.4447
     12 N3          1.1286   -4.8479    0.2939 N.am      1 <0>        -0.3466
     13 C7         -0.1877   -4.6035    0.4669 C.2       1 <0>         0.5772
     14 O2         -1.0536   -5.4252    0.7036 O.2       1 <0>        -0.4849
     15 C8          1.7361   -6.1060    0.3573 C.ar      1 <0>         0.1632
     16 C9          0.9703   -7.2367    0.6107 C.ar      1 <0>        -0.1387
     17 C10         1.5734   -8.4776    0.6726 C.ar      1 <0>        -0.0817
     18 C11         2.9381   -8.5951    0.4831 C.ar      1 <0>        -0.1356
     19 C12         3.7035   -7.4712    0.2311 C.ar      1 <0>        -0.0872
     20 C13         3.1057   -6.2282    0.1613 C.ar      1 <0>        -0.1610
     21 C14        -2.4605    0.0863    0.2305 C.3       1 <0>        -0.0242
     22 C15        -3.1455    0.1314   -1.1111 C.ar      1 <0>        -0.0244
     23 C16        -2.8088    1.1111   -2.0265 C.ar      1 <0>        -0.1223
     24 C17        -3.4371    1.1524   -3.2571 C.ar      1 <0>        -0.0557
     25 C18        -4.4017    0.2139   -3.5725 C.ar      1 <0>        -0.0536
     26 C19        -4.7377   -0.7663   -2.6575 C.ar      1 <0>        -0.0516
     27 C20        -4.1064   -0.8102   -1.4286 C.ar      1 <0>        -0.1021
     28 N4         -5.0751    0.2588   -4.8899 N.pl3     1 <0>         0.0333
     29 O3         -4.7815    1.1163   -5.6900 O.2       1 <0>        -0.1612
     30 O4         -5.9188   -0.5620   -5.1658 O.3       1 <0>        -0.1582
     31 H3          1.2220    1.2365   -0.3928 H         1 <0>         0.0800
     32 H4         -0.3594    1.3486   -1.2021 H         1 <0>         0.0981
     33 H5         -0.2407    1.5919    0.5572 H         1 <0>         0.1044
     34 H6         -0.0955   -7.1455    0.7594 H         1 <0>         0.1596
     35 H7          0.9785   -9.3572    0.8696 H         1 <0>         0.1364
     36 H8          3.4073   -9.5666    0.5324 H         1 <0>         0.1301
     37 H9          4.7692   -7.5663    0.0843 H         1 <0>         0.1318
     38 H10         3.7032   -5.3515   -0.0403 H         1 <0>         0.1189
     39 H11        -3.1711   -0.2388    0.9904 H         1 <0>         0.1039
     40 H12        -2.0885    1.0795    0.4821 H         1 <0>         0.0944
     41 H13        -2.0551    1.8443   -1.7800 H         1 <0>         0.1457
     42 H14        -3.1745    1.9182   -3.9720 H         1 <0>         0.1527
     43 H15        -5.4917   -1.4993   -2.9039 H         1 <0>         0.1538
     44 H16        -4.3663   -1.5783   -0.7151 H         1 <0>         0.1580
@<TRIPOS>BOND
     1    1    2 1
     2    1   31 1
     3    1   32 1
     4    1   33 1
     5    2    8 1
     6    2    3 2
     7    3    4 1
     8    3   21 1
     9    4    5 2
    10    4    6 1
    11    6   13 1
    12    6    7 2
    13    7    8 1
    14    7   10 1
    15    8    9 1
    16   10   11 1
    17   10   12 1
    18   12   13 am
    19   12   15 1
    20   13   14 2
    21   15   20 ar
    22   15   16 ar
    23   16   17 ar
    24   16   34 1
    25   17   18 ar
    26   17   35 1
    27   18   19 ar
    28   18   36 1
    29   19   20 ar
    30   19   37 1
    31   20   38 1
    32   21   22 1
    33   21   39 1
    34   21   40 1
    35   22   27 ar
    36   22   23 ar
    37   23   24 ar
    38   23   41 1
    39   24   25 ar
    40   24   42 1
    41   25   26 ar
    42   25   28 1
    43   26   27 ar
    44   26   43 1
    45   27   44 1
    46   28   29 2
    47   28   30 1
@<TRIPOS>MOLECULE
ZINC66832631
   50    53     0     0     0
SMALL
USER_CHARGES

@<TRIPOS>ATOM
      1 C1          0.7359    1.5913   -0.1250 C.3       1 <0>        -0.1016
      2 C2          0.8012    0.0878   -0.2043 C.2       1 <0>         0.1381
      3 C3          0.4012   -0.6908   -1.2533 C.2       1 <0>        -0.0969
      4 N1          0.6234   -1.9783   -0.9369 N.2       1 <0>        -0.1959
      5 N2          1.1361   -2.0508    0.2418 N.2       1 <0>        -0.0562
      6 N3          1.2720   -0.7495    0.7459 N.pl3     1 <0>        -0.3166
      7 C4          1.7925   -0.3879    1.9932 C.ar      1 <0>         0.1380
      8 C5          2.8561    0.4847    2.0767 C.ar      1 <0>        -0.0887
      9 C6          3.3791    0.8489    3.3135 C.ar      1 <0>        -0.0943
     10 C7          2.8583    0.3565    4.4713 C.ar      1 <0>        -0.0677
     11 C8          1.7738   -0.5363    4.4310 C.ar      1 <0>         0.1364
     12 C9          1.2305   -0.9081    3.1766 C.ar      1 <0>        -0.0876
     13 C10         0.1419   -1.7969    3.1403 C.ar      1 <0>        -0.0517
     14 C11        -0.3514   -2.2616    4.3269 C.ar      1 <0>        -0.1625
     15 C12         0.2250   -1.8518    5.5269 C.ar      1 <0>         0.1429
     16 N4          1.2480   -1.0322    5.5561 N.ar      1 <0>        -0.4681
     17 C13        -0.1775   -0.2014   -2.5188 C.2       1 <0>         0.6245
     18 O1         -0.4403    0.9785   -2.6510 O.2       1 <0>        -0.5395
     19 N5         -0.4149   -1.0620   -3.5285 N.am      1 <0>        -0.5787
     20 C14         0.0379   -2.4572   -3.4450 C.3       1 <0>         0.0817
     21 C15         0.8707   -2.7805   -4.6895 C.3       1 <0>        -0.1341
     22 C16         0.0536   -2.4588   -5.9429 C.3       1 <0>        -0.1219
     23 C17        -0.2862   -0.9667   -5.9634 C.3       1 <0>        -0.1308
     24 C18        -1.1370   -0.6243   -4.7309 C.3       1 <0>         0.1623
     25 H1         -2.0951   -1.1406   -4.7900 H         1 <0>         0.0857
     26 C19        -1.3683    0.8868   -4.6687 C.3       1 <0>        -0.1418
     27 C20        -2.3966    1.1945   -3.6108 C.2       1 <0>         0.5533
     28 O2         -2.8952    0.2938   -2.9697 O.2       1 <0>        -0.5660
     29 N6         -2.7620    2.4705   -3.3771 N.am      1 <0>        -0.8576
     30 H2          1.6812    2.0144   -0.4646 H         1 <0>         0.0933
     31 H3         -0.0731    1.9538   -0.7592 H         1 <0>         0.1182
     32 H4          0.5523    1.8931    0.9061 H         1 <0>         0.0781
     33 H5          3.2880    0.8894    1.1733 H         1 <0>         0.1390
     34 H6          4.2130    1.5339    3.3560 H         1 <0>         0.1476
     35 H7          3.2791    0.6521    5.4210 H         1 <0>         0.1483
     36 H8         -0.2929   -2.1037    2.2005 H         1 <0>         0.1371
     37 H9         -1.1873   -2.9454    4.3343 H         1 <0>         0.1450
     38 H10        -0.1749   -2.2269    6.4573 H         1 <0>         0.1678
     39 H11         0.6486   -2.5904   -2.5520 H         1 <0>         0.1285
     40 H12        -0.8263   -3.1199   -3.4014 H         1 <0>         0.0703
     41 H13         1.7806   -2.1803   -4.6844 H         1 <0>         0.0646
     42 H14         1.1323   -3.8387   -4.6874 H         1 <0>         0.0777
     43 H15         0.6347   -2.7111   -6.8299 H         1 <0>         0.0679
     44 H16        -0.8679   -3.0410   -5.9350 H         1 <0>         0.0665
     45 H17         0.6346   -0.3837   -5.9463 H         1 <0>         0.0697
     46 H18        -0.8480   -0.7339   -6.8679 H         1 <0>         0.0780
     47 H19        -0.4322    1.3879   -4.4221 H         1 <0>         0.1237
     48 H20        -1.7255    1.2398   -5.6361 H         1 <0>         0.0810
     49 H21        -2.3632    3.1909   -3.8898 H         1 <0>         0.3971
     50 H22        -3.4238    2.6685   -2.6962 H         1 <0>         0.3957
@<TRIPOS>BOND
     1    1    2 1
     2    1   30 1
     3    1   31 1
     4    1   32 1
     5    2    6 1
     6    2    3 2
     7    3    4 1
     8    3   17 1
     9    4    5 2
    10    5    6 1
    11    6    7 1
    12    7   12 ar
    13    7    8 ar
    14    8    9 ar
    15    8   33 1
    16    9   10 ar
    17    9   34 1
    18   10   11 ar
    19   10   35 1
    20   11   16 ar
    21   11   12 ar
    22   12   13 ar
    23   13   14 ar
    24   13   36 1
    25   14   15 ar
    26   14   37 1
    27   15   16 ar
    28   15   38 1
    29   17   18 2
    30   17   19 am
    31   19   24 1
    32   19   20 1
    33   20   21 1
    34   20   39 1
    35   20   40 1
    36   21   22 1
    37   21   41 1
    38   21   42 1
    39   22   23 1
    40   22   43 1
    41   22   44 1
    42   23   24 1
    43   23   45 1
    44   23   46 1
    45   24   25 1
    46   24   26 1
    47   26   27 1
    48   26   47 1
    49   26   48 1
    50   27   28 2
    51   27   29 am
    52   29   49 1
    53   29   50 1
@<TRIPOS>MOLECULE
ZINC17076902
   37    39     0     0     0
SMALL
USER_CHARGES
ethyl 4-amino-8-(4-bromophenyl)-7-methyl-pyrazolo[5,1-c][1,2,4]triazine-3-carboxylate
@<TRIPOS>ATOM
      1 C1         -4.4456    4.3644    9.3407 C.3       1 <0>        -0.1548
      2 C2         -3.0699    4.0922    8.7289 C.3       1 <0>         0.0616
      3 O1         -3.2274    3.6949    7.3412 O.3       1 <0>        -0.3254
      4 C3         -2.1019    3.4169    6.6525 C.2       1 <0>         0.5610
      5 O2         -1.0184    3.5044    7.1975 O.2       1 <0>        -0.5189
      6 C4         -2.1847    3.0085    5.2444 C.2       1 <0>        -0.1528
      7 C5         -1.0338    2.6067    4.5599 C.2       1 <0>         0.5359
      8 N1         -1.1590    2.2350    3.2482 N.pl3     1 <0>        -0.3372
      9 C6         -2.4022    2.2727    2.6652 C.2       1 <0>         0.2424
     10 C7         -2.2381    1.8541    1.3435 C.2       1 <0>        -0.1739
     11 C8         -0.8786    1.5628    1.1652 C.2       1 <0>         0.1573
     12 N2         -0.2455    1.7915    2.2892 N.2       1 <0>        -0.2966
     13 C9         -0.2473    1.0729   -0.1125 C.3       1 <0>        -0.0821
     14 C10        -3.3033    1.7365    0.3205 C.ar      1 <0>         0.0147
     15 C11        -3.9731    2.8750   -0.1267 C.ar      1 <0>        -0.0876
     16 C12        -4.9606    2.7602   -1.0834 C.ar      1 <0>        -0.0871
     17 C13        -5.2945    1.5164   -1.5913 C.ar      1 <0>        -0.0874
     18 C14        -4.6366    0.3823   -1.1472 C.ar      1 <0>        -0.0887
     19 C15        -3.6439    0.4860   -0.1947 C.ar      1 <0>        -0.0960
     20 Br1        -6.6541    1.3662   -2.8971 Br        1 <0>        -0.0502
     21 N3         -3.4679    2.6672    3.3738 N.2       1 <0>        -0.2257
     22 N4         -3.3662    3.0192    4.6063 N.2       1 <0>        -0.0657
     23 N5          0.1840    2.5860    5.1834 N.pl3     1 <0>        -0.7840
     24 H1         -4.9376    5.1643    8.7873 H         1 <0>         0.0704
     25 H2         -5.0520    3.4602    9.2882 H         1 <0>         0.0698
     26 H3         -4.3274    4.6627   10.3824 H         1 <0>         0.0834
     27 H4         -2.5780    3.2923    9.2823 H         1 <0>         0.0744
     28 H5         -2.4636    4.9965    8.7813 H         1 <0>         0.0749
     29 H6         -0.2609   -0.0169   -0.1299 H         1 <0>         0.0936
     30 H7          0.7831    1.4243   -0.1667 H         1 <0>         0.0860
     31 H8         -0.8074    1.4569   -0.9651 H         1 <0>         0.0924
     32 H9         -3.7165    3.8453    0.2721 H         1 <0>         0.1303
     33 H10        -5.4772    3.6417   -1.4334 H         1 <0>         0.1355
     34 H11        -4.9012   -0.5855   -1.5469 H         1 <0>         0.1354
     35 H12        -3.1317   -0.3995    0.1516 H         1 <0>         0.1316
     36 H13         0.9977    2.6634    4.6611 H         1 <0>         0.4227
     37 H14         0.2336    2.4938    6.1477 H         1 <0>         0.4406
@<TRIPOS>BOND
     1    1    2 1
     2    1   24 1
     3    1   25 1
     4    1   26 1
     5    2    3 1
     6    2   27 1
     7    2   28 1
     8    3    4 1
     9    4    5 2
    10    4    6 1
    11    6   22 1
    12    6    7 2
    13    7    8 1
    14    7   23 1
    15    8   12 1
    16    8    9 1
    17    9   10 2
    18    9   21 1
    19   10   11 1
    20   10   14 1
    21   11   12 2
    22   11   13 1
    23   13   29 1
    24   13   30 1
    25   13   31 1
    26   14   19 ar
    27   14   15 ar
    28   15   16 ar
    29   15   32 1
    30   16   17 ar
    31   16   33 1
    32   17   18 ar
    33   17   20 1
    34   18   19 ar
    35   18   34 1
    36   19   35 1
    37   21   22 2
    38   23   36 1
    39   23   37 1
@<TRIPOS>MOLECULE
ZINC00873834
   40    42     0     0     0
SMALL
USER_CHARGES

@<TRIPOS>ATOM
      1 C1          1.2739   -0.7168   -1.6725 C.3       1 <0>        -0.1523
      2 C2          0.5625   -1.0405   -0.3572 C.3       1 <0>         0.0566
      3 O1         -0.7374   -1.5649   -0.6354 O.3       1 <0>        -0.3437
      4 C3         -1.5009   -1.9035    0.4243 C.2       1 <0>         0.5315
      5 O2         -1.0732   -1.7571    1.5538 O.2       1 <0>        -0.4826
      6 C4         -2.8003   -2.4296    0.2217 C.2       1 <0>        -0.2242
      7 C5         -2.9449   -3.7251   -0.0860 C.2       1 <0>         0.1503
      8 O3         -4.1518   -4.2767   -0.2879 O.3       1 <0>        -0.2311
      9 C6         -5.2564   -3.6585    0.1692 C.2       1 <0>         0.4344
     10 C7         -5.2475   -2.3431    0.4952 C.2       1 <0>        -0.2652
     11 C8         -3.9937   -1.5249    0.3619 C.3       1 <0>         0.0903
     12 H1         -3.8716   -0.8993    1.2461 H         1 <0>         0.1157
     13 C9         -4.1023   -0.6473   -0.8584 C.ar      1 <0>        -0.0422
     14 C10        -4.2645   -1.2187   -2.1071 C.ar      1 <0>        -0.0730
     15 C11        -4.3641   -0.4143   -3.2301 C.ar      1 <0>         0.0547
     16 C12        -4.3009    0.9711   -3.0983 C.ar      1 <0>         0.0410
     17 C13        -4.1385    1.5374   -1.8448 C.ar      1 <0>        -0.0700
     18 C14        -4.0452    0.7281   -0.7265 C.ar      1 <0>        -0.0790
     19 Br1        -3.8311    1.5040    0.9847 Br        1 <0>        -0.0221
     20 O4         -4.4220    1.5330   -4.3364 O.3       1 <0>        -0.3026
     21 C15        -4.1498    0.4704   -5.2692 C.3       1 <0>         0.2122
     22 O5         -4.5248   -0.7198   -4.5509 O.3       1 <0>        -0.3027
     23 C16        -6.4462   -1.7257    0.9776 C.1       1 <0>         0.2689
     24 N1         -7.3971   -1.2359    1.3602 N.1       1 <0>        -0.4285
     25 N2         -6.4182   -4.3764    0.3081 N.pl3     1 <0>        -0.8244
     26 C17        -1.7162   -4.5890   -0.2095 C.3       1 <0>        -0.1209
     27 H2          2.2655   -0.3168   -1.4604 H         1 <0>         0.0810
     28 H3          1.3683   -1.6250   -2.2677 H         1 <0>         0.0669
     29 H4          0.6950    0.0222   -2.2264 H         1 <0>         0.0664
     30 H5          1.1415   -1.7795    0.1967 H         1 <0>         0.0703
     31 H6          0.4682   -0.1323    0.2380 H         1 <0>         0.0709
     32 H7         -4.3132   -2.2930   -2.2067 H         1 <0>         0.1393
     33 H8         -4.0888    2.6111   -1.7399 H         1 <0>         0.1482
     34 H9         -4.7577    0.5836   -6.1668 H         1 <0>         0.1361
     35 H10        -3.0902    0.4463   -5.5236 H         1 <0>         0.0895
     36 H11        -6.4368   -5.3184    0.0776 H         1 <0>         0.4140
     37 H12        -7.2207   -3.9416    0.6366 H         1 <0>         0.4281
     38 H13        -1.4277   -4.9533    0.7764 H         1 <0>         0.1003
     39 H14        -1.9315   -5.4358   -0.8612 H         1 <0>         0.0979
     40 H15        -0.9009   -4.0025   -0.6331 H         1 <0>         0.1000
@<TRIPOS>BOND
     1    1    2 1
     2    1   27 1
     3    1   28 1
     4    1   29 1
     5    2    3 1
     6    2   30 1
     7    2   31 1
     8    3    4 1
     9    4    5 2
    10    4    6 1
    11    6   11 1
    12    6    7 2
    13    7    8 1
    14    7   26 1
    15    8    9 1
    16    9   10 2
    17    9   25 1
    18   10   11 1
    19   10   23 1
    20   11   12 1
    21   11   13 1
    22   13   18 ar
    23   13   14 ar
    24   14   15 ar
    25   14   32 1
    26   15   22 1
    27   15   16 ar
    28   16   17 ar
    29   16   20 1
    30   17   18 ar
    31   17   33 1
    32   18   19 1
    33   20   21 1
    34   21   22 1
    35   21   34 1
    36   21   35 1
    37   23   24 3
    38   25   36 1
    39   25   37 1
    40   26   38 1
    41   26   39 1
    42   26   40 1
@<TRIPOS>MOLECULE
ZINC45607376
   55    58     0     0     0
SMALL
USER_CHARGES

@<TRIPOS>ATOM
      1 C1         -0.0128    1.3879    0.0158 C.ar      1 <0>        -0.0902
      2 C2          1.1734    2.0903    0.0112 C.ar      1 <0>        -0.1440
      3 C3          2.3846    1.4112    0.0006 C.ar      1 <0>         0.1063
      4 C4          2.4061    0.0228   -0.0050 C.ar      1 <0>        -0.1432
      5 C5          1.2242   -0.6868   -0.0005 C.ar      1 <0>        -0.0888
      6 C6          0.0047   -0.0078    0.0102 C.ar      1 <0>        -0.0675
      7 C7         -1.2645   -0.7645    0.0156 C.2       1 <0>        -0.0629
      8 C8         -2.0455   -0.6568   -1.0324 C.2       1 <0>        -0.1662
      9 C9         -3.3710   -1.3560   -1.1529 C.3       1 <0>         0.1462
     10 N1         -3.4963   -2.3421   -0.0700 N.am      1 <0>        -0.6315
     11 C10        -3.0689   -1.9255    1.2768 C.3       1 <0>         0.1310
     12 C11        -1.5705   -1.6092    1.2167 C.3       1 <0>        -0.0977
     13 C12        -3.9833   -3.5776   -0.2999 C.2       1 <0>         0.7136
     14 O1         -3.9887   -4.4045    0.5914 O.2       1 <0>        -0.5829
     15 N2         -4.4642   -3.8964   -1.5179 N.am      1 <0>        -0.7464
     16 C13        -5.0926   -5.2013   -1.7388 C.3       1 <0>         0.1448
     17 C14        -5.5485   -5.3078   -3.1954 C.3       1 <0>        -0.0420
     18 C15        -6.1949   -6.6500   -3.4225 C.2       1 <0>         0.1722
     19 N3         -5.5929   -7.7480   -3.7967 N.2       1 <0>        -0.2839
     20 N4         -6.4500   -8.7048   -3.8840 N.2       1 <0>        -0.2907
     21 C16        -7.6326   -8.2607   -3.5664 C.2       1 <0>         0.1847
     22 N5         -7.5049   -6.9458   -3.2719 N.pl3     1 <0>        -0.4644
     23 C17        -8.5799   -6.0312   -2.8861 C.3       1 <0>         0.1019
     24 C18        -9.6924   -6.8196   -2.1895 C.3       1 <0>        -0.1417
     25 C19       -10.6971   -7.3189   -3.2269 C.3       1 <0>        -0.1254
     26 C20       -10.0178   -8.2557   -4.2212 C.3       1 <0>        -0.1244
     27 C21        -8.9175   -9.0460   -3.5169 C.3       1 <0>        -0.0385
     28 O2          3.5515    2.1070   -0.0048 O.3       1 <0>        -0.5000
     29 H1         -0.9543    1.9168    0.0282 H         1 <0>         0.1283
     30 H2          1.1607    3.1702    0.0156 H         1 <0>         0.1305
     31 H3          3.3501   -0.5019   -0.0133 H         1 <0>         0.1305
     32 H4          1.2418   -1.7666   -0.0055 H         1 <0>         0.1274
     33 H5         -1.7196   -0.0330   -1.8516 H         1 <0>         0.1224
     34 H6         -4.1764   -0.6257   -1.0756 H         1 <0>         0.0826
     35 H7         -3.4291   -1.8632   -2.1159 H         1 <0>         0.0860
     36 H8         -3.6245   -1.0388    1.5821 H         1 <0>         0.0741
     37 H9         -3.2453   -2.7342    1.9861 H         1 <0>         0.0999
     38 H10        -1.0044   -2.5387    1.1574 H         1 <0>         0.0829
     39 H11        -1.2809   -1.0709    2.1192 H         1 <0>         0.0867
     40 H12        -4.3943   -3.2619   -2.2483 H         1 <0>         0.3967
     41 H13        -4.3734   -5.9918   -1.5244 H         1 <0>         0.0789
     42 H14        -5.9545   -5.3057   -1.0797 H         1 <0>         0.0658
     43 H15        -6.2677   -4.5173   -3.4097 H         1 <0>         0.0887
     44 H16        -4.6866   -5.2034   -3.8544 H         1 <0>         0.1083
     45 H17        -8.1878   -5.2762   -2.2046 H         1 <0>         0.0961
     46 H18        -8.9807   -5.5454   -3.7757 H         1 <0>         0.0912
     47 H19        -9.2594   -7.6712   -1.6648 H         1 <0>         0.0823
     48 H20       -10.2010   -6.1738   -1.4737 H         1 <0>         0.0903
     49 H21       -11.5011   -7.8533   -2.7209 H         1 <0>         0.0753
     50 H22       -11.1142   -6.4665   -3.7631 H         1 <0>         0.0706
     51 H23       -10.7547   -8.9464   -4.6309 H         1 <0>         0.0828
     52 H24        -9.5799   -7.6708   -5.0301 H         1 <0>         0.0644
     53 H25        -8.7772  -10.0064   -4.0131 H         1 <0>         0.1025
     54 H26        -9.2051   -9.2095   -2.4783 H         1 <0>         0.0936
     55 H27         3.8953    2.3052    0.8770 H         1 <0>         0.3923
@<TRIPOS>BOND
     1    1    6 ar
     2    1    2 ar
     3    1   29 1
     4    2    3 ar
     5    2   30 1
     6    3    4 ar
     7    3   28 1
     8    4    5 ar
     9    4   31 1
    10    5    6 ar
    11    5   32 1
    12    6    7 1
    13    7   12 1
    14    7    8 2
    15    8    9 1
    16    8   33 1
    17    9   10 1
    18    9   34 1
    19    9   35 1
    20   10   11 1
    21   10   13 am
    22   11   12 1
    23   11   36 1
    24   11   37 1
    25   12   38 1
    26   12   39 1
    27   13   14 2
    28   13   15 am
    29   15   16 1
    30   15   40 1
    31   16   17 1
    32   16   41 1
    33   16   42 1
    34   17   18 1
    35   17   43 1
    36   17   44 1
    37   18   22 1
    38   18   19 2
    39   19   20 1
    40   20   21 2
    41   21   27 1
    42   21   22 1
    43   22   23 1
    44   23   24 1
    45   23   45 1
    46   23   46 1
    47   24   25 1
    48   24   47 1
    49   24   48 1
    50   25   26 1
    51   25   49 1
    52   25   50 1
    53   26   27 1
    54   26   51 1
    55   26   52 1
    56   27   53 1
    57   27   54 1
    58   28   55 1
@<TRIPOS>MOLECULE
ZINC63296170
   45    48     0     0     0
SMALL
USER_CHARGES

@<TRIPOS>ATOM
      1 C1         -0.0545    1.5016    0.0097 C.3       1 <0>        -0.1067
      2 C2         -0.0345   -0.0052    0.0016 C.2       1 <0>        -0.0601
      3 C3         -0.0397   -0.6784   -1.1601 C.2       1 <0>        -0.1639
      4 S1         -0.0099   -2.3858   -0.6479 S.3       1 <0>         0.1412
      5 C4          0.0087   -2.1452    1.1099 C.2       1 <0>         0.1056
      6 C5         -0.0032   -0.7456    1.2490 C.2       1 <0>        -0.2468
      7 C6          0.0125   -0.2570    2.5962 C.2       1 <0>         0.5570
      8 O1         -0.0006    0.9410    2.8204 O.2       1 <0>        -0.5172
      9 N1          0.0415   -1.1420    3.6099 N.am      1 <0>        -0.6338
     10 C7          0.0564   -2.4800    3.3791 C.2       1 <0>         0.4107
     11 N2          0.0326   -2.9566    2.1632 N.2       1 <0>        -0.4895
     12 C8          0.0893   -3.4321    4.5468 C.3       1 <0>        -0.0603
     13 C9          0.1009   -4.8723    4.0303 C.3       1 <0>        -0.1232
     14 C10         0.1338   -5.8244    5.1980 C.2       1 <0>         0.5162
     15 O2          0.1468   -5.3935    6.3317 O.2       1 <0>        -0.5202
     16 N3          0.1489   -7.1548    4.9825 N.am      1 <0>        -0.6717
     17 C11         0.2771   -8.0377    6.0621 C.ar      1 <0>         0.1244
     18 C12        -0.3159   -7.7301    7.2853 C.ar      1 <0>        -0.0640
     19 C13        -0.1991   -8.5881    8.3569 C.ar      1 <0>        -0.1136
     20 C14         0.5146   -9.7728    8.2254 C.ar      1 <0>         0.1336
     21 C15         1.1147  -10.0877    6.9937 C.ar      1 <0>        -0.1402
     22 C16         0.9866   -9.2143    5.9097 C.ar      1 <0>        -0.0822
     23 C17         1.8653  -11.3411    6.8680 C.2       1 <0>        -0.0020
     24 C18         1.9493  -12.1497    7.9546 C.2       1 <0>        -0.2403
     25 C19         1.3217  -11.7708    9.1610 C.2       1 <0>         0.5058
     26 O3          1.4048  -12.5050   10.1291 O.2       1 <0>        -0.4607
     27 O4          0.6368  -10.6222    9.2687 O.3       1 <0>        -0.2692
     28 C20        -0.0652   -0.1237   -2.5610 C.3       1 <0>        -0.0687
     29 H1          0.9681    1.8787   -0.0060 H         1 <0>         0.0726
     30 H2         -0.5883    1.8626   -0.8694 H         1 <0>         0.0683
     31 H3         -0.5577    1.8535    0.9103 H         1 <0>         0.0824
     32 H4          0.9869   -3.2510    5.1381 H         1 <0>         0.1161
     33 H5         -0.7927   -3.2760    5.1679 H         1 <0>         0.1163
     34 H6         -0.7966   -5.0535    3.4390 H         1 <0>         0.1142
     35 H7          0.9829   -5.0284    3.4092 H         1 <0>         0.1140
     36 H8          0.0711   -7.5008    4.0796 H         1 <0>         0.4170
     37 H9         -0.8718   -6.8105    7.3942 H         1 <0>         0.1567
     38 H10        -0.6625   -8.3393    9.3002 H         1 <0>         0.1493
     39 H11         1.4423   -9.4553    4.9607 H         1 <0>         0.1441
     40 H12         2.3382  -11.6134    5.9360 H         1 <0>         0.1554
     41 H13         2.4942  -13.0804    7.8964 H         1 <0>         0.1661
     42 H14         0.9561    0.0245   -2.9118 H         1 <0>         0.0819
     43 H15        -0.5777   -0.8245   -3.2200 H         1 <0>         0.0765
     44 H16        -0.5926    0.8303   -2.5645 H         1 <0>         0.0854
     45 H17         0.0522   -0.8173    4.5239 H         1 <0>         0.4235
@<TRIPOS>BOND
     1    1    2 1
     2    1   29 1
     3    1   30 1
     4    1   31 1
     5    2    6 1
     6    2    3 2
     7    3    4 1
     8    3   28 1
     9    4    5 1
    10    5   11 1
    11    5    6 2
    12    6    7 1
    13    7    8 2
    14    7    9 am
    15    9   10 1
    16    9   45 1
    17   10   11 2
    18   10   12 1
    19   12   13 1
    20   12   32 1
    21   12   33 1
    22   13   14 1
    23   13   34 1
    24   13   35 1
    25   14   15 2
    26   14   16 am
    27   16   17 1
    28   16   36 1
    29   17   22 ar
    30   17   18 ar
    31   18   19 ar
    32   18   37 1
    33   19   20 ar
    34   19   38 1
    35   20   27 1
    36   20   21 ar
    37   21   22 ar
    38   21   23 1
    39   22   39 1
    40   23   24 2
    41   23   40 1
    42   24   25 1
    43   24   41 1
    44   25   26 2
    45   25   27 1
    46   28   42 1
    47   28   43 1
    48   28   44 1
@<TRIPOS>MOLECULE
ZINC67548534
   46    48     0     0     0
SMALL
USER_CHARGES

@<TRIPOS>ATOM
      1 C1         -0.0458    1.4729    0.0034 C.3       1 <0>        -0.1384
      2 C2          0.2793   -0.0079   -0.2023 C.3       1 <0>         0.1427
      3 H1          0.8490   -0.1325   -1.1232 H         1 <0>         0.0746
      4 C3         -1.0217   -0.8119   -0.2906 C.3       1 <0>        -0.1324
      5 C4         -0.6908   -2.3046   -0.3563 C.3       1 <0>        -0.1223
      6 C5          0.0490   -2.7214    0.9169 C.3       1 <0>        -0.1363
      7 C6          1.3622   -1.9391    1.0189 C.3       1 <0>         0.0890
      8 N1          1.0674   -0.5018    0.9351 N.am      1 <0>        -0.6010
      9 C7          1.5083    0.3466    1.8850 C.2       1 <0>         0.5163
     10 O1          1.1780    1.5132    1.8568 O.2       1 <0>        -0.5275
     11 C8          2.4117   -0.1544    2.9823 C.3       1 <0>         0.1427
     12 H2          3.2425   -0.7078    2.5446 H         1 <0>         0.1171
     13 C9          1.6205   -1.0747    3.9139 C.3       1 <0>        -0.1727
     14 N2          2.9308    0.9835    3.7451 N.am      1 <0>        -0.7177
     15 C10         4.0961    0.8718    4.4130 C.2       1 <0>         0.7057
     16 O2          4.7166   -0.1734    4.3823 O.2       1 <0>        -0.5222
     17 N3          4.5737    1.9186    5.1148 N.am      1 <0>        -0.6171
     18 C11         5.7762    1.8033    5.8039 C.2       1 <0>         0.3075
     19 N4          6.6069    0.7750    5.9010 N.2       1 <0>        -0.2729
     20 N5          7.6706    0.8375    6.5758 N.2       1 <0>        -0.2457
     21 C12         8.0220    1.9379    7.2298 C.2       1 <0>         0.1125
     22 S1          6.6473    3.0042    6.8064 S.3       1 <0>         0.0001
     23 C13         9.2116    2.2079    8.0649 C.2       1 <0>        -0.0384
     24 C14        10.1830    1.2285    8.2607 C.2       1 <0>        -0.1300
     25 C15        11.2563    1.5138    9.0306 C.2       1 <0>        -0.1653
     26 S2         10.9367    3.2005    9.5182 S.3       1 <0>         0.0870
     27 C16         9.3883    3.4282    8.6598 C.2       1 <0>        -0.1523
     28 H3          0.8793    2.0491    0.0198 H         1 <0>         0.0724
     29 H4         -0.6775    1.8230   -0.8130 H         1 <0>         0.0460
     30 H5         -0.5708    1.6016    0.9499 H         1 <0>         0.0705
     31 H6         -1.6327   -0.6131    0.5899 H         1 <0>         0.0682
     32 H7         -1.5691   -0.5208   -1.1871 H         1 <0>         0.0769
     33 H8         -1.6139   -2.8777   -0.4441 H         1 <0>         0.0687
     34 H9         -0.0593   -2.4988   -1.2233 H         1 <0>         0.0661
     35 H10        -0.5720   -2.5046    1.7860 H         1 <0>         0.0692
     36 H11         0.2637   -3.7894    0.8798 H         1 <0>         0.0805
     37 H12         1.8451   -2.1583    1.9712 H         1 <0>         0.0980
     38 H13         2.0214   -2.2231    0.1986 H         1 <0>         0.0757
     39 H14         1.1440   -1.8613    3.3289 H         1 <0>         0.0825
     40 H15         2.2965   -1.5224    4.6424 H         1 <0>         0.0798
     41 H16         0.8574   -0.4959    4.4342 H         1 <0>         0.0679
     42 H17         2.4358    1.8173    3.7696 H         1 <0>         0.4100
     43 H18         4.0787    2.7524    5.1392 H         1 <0>         0.4273
     44 H19        10.0794    0.2552    7.8042 H         1 <0>         0.1497
     45 H20        12.0941    0.8819    9.2860 H         1 <0>         0.1955
     46 H21         8.7547    4.3019    8.6207 H         1 <0>         0.1918
@<TRIPOS>BOND
     1    1    2 1
     2    1   28 1
     3    1   29 1
     4    1   30 1
     5    2    3 1
     6    2    8 1
     7    2    4 1
     8    4    5 1
     9    4   31 1
    10    4   32 1
    11    5    6 1
    12    5   33 1
    13    5   34 1
    14    6    7 1
    15    6   35 1
    16    6   36 1
    17    7    8 1
    18    7   37 1
    19    7   38 1
    20    8    9 am
    21    9   10 2
    22    9   11 1
    23   11   12 1
    24   11   13 1
    25   11   14 1
    26   13   39 1
    27   13   40 1
    28   13   41 1
    29   14   15 am
    30   14   42 1
    31   15   16 2
    32   15   17 am
    33   17   18 1
    34   17   43 1
    35   18   22 1
    36   18   19 2
    37   19   20 1
    38   20   21 2
    39   21   22 1
    40   21   23 1
    41   23   27 2
    42   23   24 1
    43   24   25 2
    44   24   44 1
    45   25   26 1
    46   25   45 1
    47   26   27 1
    48   27   46 1
@<TRIPOS>MOLECULE
ZINC12572774
   69    72     0     0     0
SMALL
USER_CHARGES
methyl (2S,4R)-4-[(2,3-dimethyl1H-indole-7-carbonyl)amino]-1-[[(4S)-4-isopropenyl-1-cyclohexenyl]methyl]pyrrolidine-2-carboxylate
@<TRIPOS>ATOM
      1 C1          3.1472    0.0001   -0.0270 C.3       1 <0>        -0.0818
      2 C2          2.6001    1.4042   -0.0148 C.2       1 <0>        -0.1630
      3 C3          3.3144    2.5404   -0.0152 C.2       1 <0>         0.0785
      4 N1          2.4723    3.6198   -0.0016 N.pl3     1 <0>        -0.5761
      5 H1          2.7563    4.5473    0.0008 H         1 <0>         0.4240
      6 C4          1.1682    3.1962    0.0081 C.ar      1 <0>         0.1596
      7 C5          1.1862    1.7900    0.0003 C.ar      1 <0>        -0.1121
      8 C6         -0.0126    1.0758    0.0080 C.ar      1 <0>        -0.0222
      9 C7         -1.2161    1.7492    0.0173 C.ar      1 <0>        -0.1630
     10 C8         -1.2489    3.1319    0.0315 C.ar      1 <0>        -0.0534
     11 C9         -0.0655    3.8675    0.0238 C.ar      1 <0>        -0.1721
     12 C10        -0.1080    5.3420    0.0327 C.2       1 <0>         0.5768
     13 O1          0.9270    5.9801    0.0264 O.2       1 <0>        -0.5382
     14 N2         -1.2941    5.9818    0.0478 N.am      1 <0>        -0.7246
     15 C11        -1.3363    7.4462    0.0565 C.3       1 <0>         0.1338
     16 H2         -0.5114    7.8445    0.6472 H         1 <0>         0.1320
     17 C12        -2.6863    7.9399    0.6164 C.3       1 <0>        -0.1434
     18 C13        -3.3283    8.7435   -0.5349 C.3       1 <0>         0.0339
     19 H3         -4.0067    8.1112   -1.1077 H         1 <0>         0.1808
     20 C14        -1.2762    7.9930   -1.3859 C.3       1 <0>        -0.0231
     21 C15        -2.6245    9.5035   -2.7385 C.3       1 <0>         0.0422
     22 C16        -1.4622   10.0542   -3.5241 C.2       1 <0>        -0.1895
     23 C17        -0.7871    9.2344   -4.2641 C.2       1 <0>        -0.0682
     24 C18         0.3861    9.6361   -5.1093 C.3       1 <0>        -0.1005
     25 C19         0.9200   10.9971   -4.6573 C.3       1 <0>        -0.0499
     26 H4          1.4002   10.8974   -3.6839 H         1 <0>         0.0778
     27 C20        -0.2606   11.9709   -4.5526 C.3       1 <0>        -0.1138
     28 C21        -1.1634   11.5199   -3.4044 C.3       1 <0>        -0.0834
     29 C22         1.9135   11.5121   -5.6667 C.2       1 <0>        -0.1308
     30 C23         3.1487   11.7556   -5.3046 C.2       1 <0>        -0.1829
     31 C24         1.4860   11.7472   -7.0925 C.3       1 <0>        -0.1227
     32 C25        -4.0606    9.9452    0.0042 C.2       1 <0>         0.4624
     33 O2         -3.6820   11.0584   -0.2740 O.2       1 <0>        -0.4830
     34 O3         -5.1336    9.7789    0.7934 O.3       1 <0>        -0.3330
     35 C26        -5.7894   10.9811    1.2762 C.3       1 <0>         0.0333
     36 C27         4.8194    2.6168   -0.0287 C.3       1 <0>        -0.0979
     37 H5          3.2696   -0.3332   -1.0576 H         1 <0>         0.0677
     38 H6          4.1132   -0.0179    0.4777 H         1 <0>         0.0676
     39 H7          2.4547   -0.6642    0.4899 H         1 <0>         0.0661
     40 H8          0.0021   -0.0041    0.0020 H         1 <0>         0.1327
     41 H9         -2.1412    1.1918    0.0186 H         1 <0>         0.1341
     42 H10        -2.1990    3.6454    0.0432 H         1 <0>         0.1253
     43 H11        -2.1198    5.4728    0.0528 H         1 <0>         0.4113
     44 H12        -3.3175    7.0927    0.8847 H         1 <0>         0.1359
     45 H13        -2.5250    8.5820    1.4823 H         1 <0>         0.1198
     46 H14        -0.2596    8.2971   -1.6351 H         1 <0>         0.1512
     47 H15        -1.6315    7.2426   -2.0921 H         1 <0>         0.1404
     48 H16        -3.0010    8.6054   -3.2282 H         1 <0>         0.1309
     49 H17        -3.4169   10.2504   -2.6903 H         1 <0>         0.1374
     50 H18        -1.0864    8.1968   -4.2737 H         1 <0>         0.1138
     51 H19         1.1737    8.8888   -5.0127 H         1 <0>         0.0883
     52 H20         0.0756    9.6980   -6.1524 H         1 <0>         0.0966
     53 H21         0.1105   12.9766   -4.3551 H         1 <0>         0.0773
     54 H22        -0.8243   11.9650   -5.4854 H         1 <0>         0.0731
     55 H23        -2.0966   12.0825   -3.4337 H         1 <0>         0.0832
     56 H24        -0.6592   11.7097   -2.4568 H         1 <0>         0.0748
     57 H25         3.4550   11.5872   -4.2828 H         1 <0>         0.0970
     58 H26         3.8607   12.1247   -6.0279 H         1 <0>         0.1024
     59 H27         1.1231   12.7694   -7.1993 H         1 <0>         0.0692
     60 H28         2.3361   11.5921   -7.7570 H         1 <0>         0.0668
     61 H29         0.6896   11.0499   -7.3527 H         1 <0>         0.0620
     62 H30        -6.6390   10.7055    1.9010 H         1 <0>         0.1206
     63 H31        -5.0834   11.5698    1.8619 H         1 <0>         0.0764
     64 H32        -6.1382   11.5703    0.4281 H         1 <0>         0.0762
     65 H33         5.1728    2.6408   -1.0596 H         1 <0>         0.0815
     66 H34         5.1419    3.5213    0.4871 H         1 <0>         0.0705
     67 H35         5.2320    1.7436    0.4766 H         1 <0>         0.0899
     68 N3         -2.1791    9.1412   -1.3561 N.4       1 <0>        -0.3836
     69 H36        -1.7064    9.9480   -0.9320 H         1 <0>         0.4373
@<TRIPOS>BOND
     1    1    2 1
     2    1   37 1
     3    1   38 1
     4    1   39 1
     5    2    7 1
     6    2    3 2
     7    3    4 1
     8    3   36 1
     9    4    5 1
    10    4    6 1
    11    6   11 ar
    12    6    7 ar
    13    7    8 ar
    14    8    9 ar
    15    8   40 1
    16    9   10 ar
    17    9   41 1
    18   10   11 ar
    19   10   42 1
    20   11   12 1
    21   12   13 2
    22   12   14 am
    23   14   15 1
    24   14   43 1
    25   15   16 1
    26   15   20 1
    27   15   17 1
    28   17   18 1
    29   17   44 1
    30   17   45 1
    31   18   19 1
    32   18   32 1
    33   18   68 1
    34   20   46 1
    35   20   47 1
    36   20   68 1
    37   21   22 1
    38   21   48 1
    39   21   49 1
    40   21   68 1
    41   22   28 1
    42   22   23 2
    43   23   24 1
    44   23   50 1
    45   24   25 1
    46   24   51 1
    47   24   52 1
    48   25   26 1
    49   25   27 1
    50   25   29 1
    51   27   28 1
    52   27   53 1
    53   27   54 1
    54   28   55 1
    55   28   56 1
    56   29   30 2
    57   29   31 1
    58   30   57 1
    59   30   58 1
    60   31   59 1
    61   31   60 1
    62   31   61 1
    63   32   33 2
    64   32   34 1
    65   34   35 1
    66   35   62 1
    67   35   63 1
    68   35   64 1
    69   36   65 1
    70   36   66 1
    71   36   67 1
    72   68   69 1
@<TRIPOS>MOLECULE
ZINC20687746
   63    66     0     0     0
SMALL
USER_CHARGES
(2R)-N-(1-adamantylcarbamoyl)-2-[[4-(difluoromethoxy)phenyl]methyl-methyl-amino]propanamide
@<TRIPOS>ATOM
      1 C1         -8.5851   -0.8509    2.1012 C.3       1 <0>        -0.1841
      2 C2         -8.6059    0.6790    2.1096 C.3       1 <0>         0.0122
      3 H1         -9.1526    1.0703    1.2390 H         1 <0>         0.1675
      4 C3         -7.1921    1.2006    2.0989 C.2       1 <0>         0.5188
      5 O1         -6.7964    1.8980    3.0082 O.2       1 <0>        -0.4576
      6 N1         -6.3676    0.8917    1.0785 N.am      1 <0>        -0.6902
      7 C4         -5.1031    1.3582    1.0690 C.2       1 <0>         0.6957
      8 O2         -4.7065    2.0574    1.9805 O.2       1 <0>        -0.5176
      9 N2         -4.2786    1.0494    0.0485 N.am      1 <0>        -0.7331
     10 C5         -2.9042    1.5565    0.0381 C.3       1 <0>         0.2026
     11 C6         -2.1881    1.0631   -1.2207 C.3       1 <0>        -0.1137
     12 C7         -0.7527    1.5927   -1.2315 C.3       1 <0>        -0.0812
     13 C8         -0.0127    1.0858    0.0080 C.3       1 <0>        -0.1142
     14 C9         -0.7288    1.5792    1.2668 C.3       1 <0>        -0.0830
     15 C10        -2.1642    1.0497    1.2777 C.3       1 <0>        -0.1225
     16 C11        -0.7496    3.1091    1.2752 C.3       1 <0>        -0.1120
     17 C12        -1.4896    3.6159    0.0357 C.3       1 <0>        -0.0829
     18 C13        -0.7734    3.1225   -1.2231 C.3       1 <0>        -0.1143
     19 C14        -2.9250    3.0863    0.0466 C.3       1 <0>        -0.1227
     20 N3         -9.2935    1.1527    3.3183 N.4       1 <0>        -0.3888
     21 C15        -8.6237    0.6637    4.5308 C.3       1 <0>        -0.0718
     22 C16       -10.7097    0.7626    3.3054 C.3       1 <0>         0.0500
     23 C17       -11.4347    1.4658    4.4238 C.ar      1 <0>        -0.1888
     24 C18       -11.5263    0.8708    5.6685 C.ar      1 <0>        -0.0517
     25 C19       -12.1855    1.5160    6.6969 C.ar      1 <0>        -0.1908
     26 C20       -12.7655    2.7569    6.4768 C.ar      1 <0>         0.1479
     27 C21       -12.6771    3.3492    5.2255 C.ar      1 <0>        -0.1321
     28 C22       -12.0119    2.7025    4.2019 C.ar      1 <0>        -0.0549
     29 O3        -13.4189    3.3913    7.4855 O.3       1 <0>        -0.3125
     30 C23       -13.4704    2.7221    8.7471 C.3       1 <0>         0.4085
     31 F1        -14.1174    1.4910    8.5959 F         1 <0>        -0.1940
     32 F2        -12.1695    2.5108    9.2163 F         1 <0>        -0.1949
     33 H2         -9.6171   -1.2317    2.1090 H         1 <0>         0.1003
     34 H3         -8.0531   -1.2152    2.9924 H         1 <0>         0.0920
     35 H4         -8.0702   -1.2056    1.1962 H         1 <0>         0.1097
     36 H5         -6.7267    0.2589    0.2535 H         1 <0>         0.4404
     37 H6         -4.6376    0.4166   -0.7765 H         1 <0>         0.4190
     38 H7         -2.1732   -0.0368   -1.2268 H         1 <0>         0.0708
     39 H8         -2.7201    1.4275   -2.1119 H         1 <0>         0.0709
     40 H9         -0.2378    1.2380   -2.1365 H         1 <0>         0.0795
     41 H10         0.0022   -0.0141    0.0019 H         1 <0>         0.0640
     42 H11         1.0193    1.4665    0.0002 H         1 <0>         0.0690
     43 H12        -0.1967    1.2147    2.1579 H         1 <0>         0.0748
     44 H13        -2.6791    1.4045    2.1827 H         1 <0>         0.0836
     45 H14        -2.1493   -0.0502    1.2718 H         1 <0>         0.0597
     46 H15        -1.2645    3.4638    2.1802 H         1 <0>         0.0645
     47 H16         0.2824    3.4899    1.2674 H         1 <0>         0.0669
     48 H17        -1.5046    4.7158    0.0417 H         1 <0>         0.0749
     49 H18         0.2586    3.5032   -1.2309 H         1 <0>         0.0690
     50 H19        -1.3053    3.4869   -2.1143 H         1 <0>         0.0640
     51 H20        -3.4571    3.4507   -0.8445 H         1 <0>         0.0599
     52 H21        -3.4399    3.4410    0.9516 H         1 <0>         0.0837
     53 H22        -9.1580    1.0324    5.4188 H         1 <0>         0.1267
     54 H23        -7.5862    1.0289    4.5492 H         1 <0>         0.1453
     55 H24        -8.6253   -0.4363    4.5323 H         1 <0>         0.1186
     56 H25       -11.1592    1.0455    2.3421 H         1 <0>         0.1402
     57 H26       -10.7915   -0.3257    3.4426 H         1 <0>         0.1368
     58 H27       -11.0783   -0.0971    5.8381 H         1 <0>         0.1379
     59 H28       -12.2530    1.0528    7.6702 H         1 <0>         0.1459
     60 H29       -13.1281    4.3150    5.0515 H         1 <0>         0.1490
     61 H30       -11.9425    3.1633    3.2276 H         1 <0>         0.1430
     62 H31       -14.0210    3.3257    9.4837 H         1 <0>         0.1957
     63 H32        -9.2457    2.2516    3.3257 H         1 <0>         0.4508
@<TRIPOS>BOND
     1    1    2 1
     2    1   33 1
     3    1   34 1
     4    1   35 1
     5    2    3 1
     6    2    4 1
     7    2   20 1
     8    4    5 2
     9    4    6 am
    10    6    7 am
    11    6   36 1
    12    7    8 2
    13    7    9 am
    14    9   10 1
    15    9   37 1
    16   10   15 1
    17   10   19 1
    18   10   11 1
    19   11   12 1
    20   11   38 1
    21   11   39 1
    22   12   18 1
    23   12   13 1
    24   12   40 1
    25   13   14 1
    26   13   41 1
    27   13   42 1
    28   14   15 1
    29   14   16 1
    30   14   43 1
    31   15   44 1
    32   15   45 1
    33   16   17 1
    34   16   46 1
    35   16   47 1
    36   17   18 1
    37   17   19 1
    38   17   48 1
    39   18   49 1
    40   18   50 1
    41   19   51 1
    42   19   52 1
    43   20   21 1
    44   20   22 1
    45   20   63 1
    46   21   53 1
    47   21   54 1
    48   21   55 1
    49   22   23 1
    50   22   56 1
    51   22   57 1
    52   23   28 ar
    53   23   24 ar
    54   24   25 ar
    55   24   58 1
    56   25   26 ar
    57   25   59 1
    58   26   27 ar
    59   26   29 1
    60   27   28 ar
    61   27   60 1
    62   28   61 1
    63   29   30 1
    64   30   31 1
    65   30   32 1
    66   30   62 1
@<TRIPOS>MOLECULE
ZINC39364816
   56    59     0     0     0
SMALL
USER_CHARGES

@<TRIPOS>ATOM
      1 C1         -0.4995    1.2463   -0.8121 C.ar      1 <0>        -0.0762
      2 C2          0.5781    2.1123   -0.7928 C.ar      1 <0>        -0.0817
      3 C3          1.8632    1.6143   -0.6897 C.ar      1 <0>        -0.0603
      4 C4          2.0712    0.2500   -0.6052 C.ar      1 <0>        -0.1652
      5 C5          0.9940   -0.6157   -0.6235 C.ar      1 <0>        -0.1108
      6 C6         -0.2915   -0.1176   -0.7281 C.ar      1 <0>        -0.0922
      7 C7          1.2207   -2.1027   -0.5324 C.3       1 <0>         0.0084
      8 N1          1.3661   -2.4905    0.8771 N.4       1 <0>        -0.3910
      9 C8          0.1111   -2.2183    1.5949 C.3       1 <0>        -0.0284
     10 C9          0.3552   -2.3866    3.0958 C.3       1 <0>         0.0876
     11 N2          0.9974   -3.6730    3.3539 N.am      1 <0>        -0.7108
     12 C10         1.6075   -4.3794    2.3954 C.2       1 <0>         0.5309
     13 O1          2.1378   -5.4285    2.6939 O.2       1 <0>        -0.4928
     14 C11         1.6620   -3.9259    0.9641 C.3       1 <0>         0.0337
     15 H1          0.9283   -4.4821    0.3807 H         1 <0>         0.1775
     16 C12         3.0598   -4.1907    0.4011 C.3       1 <0>        -0.1702
     17 C13         4.0889   -3.5240    1.2772 C.2       1 <0>         0.5065
     18 O2          3.7496   -2.9881    2.3110 O.2       1 <0>        -0.5375
     19 N3          5.3862   -3.5232    0.9119 N.am      1 <0>        -0.7042
     20 C14         6.3866   -2.8750    1.7635 C.3       1 <0>         0.1724
     21 C15         7.7487   -3.0147    1.1340 C.2       1 <0>        -0.1199
     22 C16         8.2948   -2.0410    0.3443 C.2       1 <0>        -0.0441
     23 C17         9.6427   -2.2051   -0.1920 C.2       1 <0>        -0.1523
     24 C18        10.2758   -3.3836   -0.2194 C.2       1 <0>        -0.0814
     25 C19         9.5589   -4.6053    0.2712 C.3       1 <0>         0.0579
     26 H2          9.0409   -5.0870   -0.5582 H         1 <0>         0.1458
     27 C20         8.5527   -4.1535    1.3209 C.2       1 <0>        -0.0879
     28 C21         8.6851   -5.0237    2.3351 C.2       1 <0>        -0.1640
     29 C22         9.8432   -5.8073    2.1308 C.2       1 <0>         0.1391
     30 N4         10.3917   -5.5778    0.9632 N.2       1 <0>        -0.4648
     31 C23         3.4725   -0.2930   -0.4937 C.3       1 <0>         0.4971
     32 F1          4.3904    0.7546   -0.6247 F         1 <0>        -0.1540
     33 F2          3.6378   -0.9045    0.7537 F         1 <0>        -0.1750
     34 F3          3.6902   -1.2333   -1.5064 F         1 <0>        -0.1693
     35 H3         -1.5039    1.6356   -0.8882 H         1 <0>         0.1516
     36 H4          0.4156    3.1780   -0.8588 H         1 <0>         0.1528
     37 H5          2.7050    2.2908   -0.6754 H         1 <0>         0.1538
     38 H6         -1.1332   -0.7941   -0.7431 H         1 <0>         0.1500
     39 H7          0.3702   -2.6273   -0.9676 H         1 <0>         0.1574
     40 H8          2.1275   -2.3660   -1.0770 H         1 <0>         0.1449
     41 H9         -0.2133   -1.1982    1.3897 H         1 <0>         0.1507
     42 H10        -0.6561   -2.9205    1.2686 H         1 <0>         0.1450
     43 H11         1.0001   -1.5824    3.4502 H         1 <0>         0.0976
     44 H12        -0.5971   -2.3448    3.6245 H         1 <0>         0.1295
     45 H13         0.9811   -4.0291    4.2560 H         1 <0>         0.4269
     46 H14         3.2443   -5.2647    0.3768 H         1 <0>         0.1595
     47 H15         3.1268   -3.7876   -0.6094 H         1 <0>         0.1248
     48 H16         5.6575   -3.9517    0.0851 H         1 <0>         0.4087
     49 H17         6.1426   -1.8181    1.8708 H         1 <0>         0.0852
     50 H18         6.3898   -3.3486    2.7453 H         1 <0>         0.0872
     51 H19         7.7285   -1.1500    0.1170 H         1 <0>         0.1303
     52 H20        10.1512   -1.3369   -0.5844 H         1 <0>         0.1313
     53 H21        11.2879   -3.4536   -0.5897 H         1 <0>         0.1382
     54 H22         8.0122   -5.1108    3.1754 H         1 <0>         0.1445
     55 H23        10.2250   -6.5178    2.8490 H         1 <0>         0.1764
     56 H24         2.1181   -1.9644    1.2964 H         1 <0>         0.4307
@<TRIPOS>BOND
     1    1    6 ar
     2    1    2 ar
     3    1   35 1
     4    2    3 ar
     5    2   36 1
     6    3    4 ar
     7    3   37 1
     8    4    5 ar
     9    4   31 1
    10    5    6 ar
    11    5    7 1
    12    6   38 1
    13    7    8 1
    14    7   39 1
    15    7   40 1
    16    8   14 1
    17    8    9 1
    18    8   56 1
    19    9   10 1
    20    9   41 1
    21    9   42 1
    22   10   11 1
    23   10   43 1
    24   10   44 1
    25   11   12 am
    26   11   45 1
    27   12   13 2
    28   12   14 1
    29   14   15 1
    30   14   16 1
    31   16   17 1
    32   16   46 1
    33   16   47 1
    34   17   18 2
    35   17   19 am
    36   19   20 1
    37   19   48 1
    38   20   21 1
    39   20   49 1
    40   20   50 1
    41   21   27 1
    42   21   22 2
    43   22   23 1
    44   22   51 1
    45   23   24 2
    46   23   52 1
    47   24   25 1
    48   24   53 1
    49   25   26 1
    50   25   30 1
    51   25   27 1
    52   27   28 2
    53   28   29 1
    54   28   54 1
    55   29   30 2
    56   29   55 1
    57   31   32 1
    58   31   33 1
    59   31   34 1
@<TRIPOS>MOLECULE
ZINC39937992
   59    62     0     0     0
SMALL
USER_CHARGES

@<TRIPOS>ATOM
      1 C1          0.6901   -0.2428    2.3403 C.3       1 <0>        -0.1723
      2 C2          0.9690   -1.6214    1.7381 C.3       1 <0>         0.1531
      3 H1          0.1946   -2.3283    2.0359 H         1 <0>         0.0909
      4 C3          1.0498   -1.5289    0.1939 C.3       1 <0>        -0.1126
      5 C4          1.9203   -2.7671   -0.1472 C.3       1 <0>        -0.0883
      6 H2          1.3095   -3.6690   -0.1863 H         1 <0>         0.1352
      7 C5          2.9109   -2.8294    1.0345 C.3       1 <0>         0.1596
      8 H3          3.8509   -2.3531    0.7558 H         1 <0>         0.0754
      9 N1          2.2959   -2.1064    2.1595 N.pl3     1 <0>        -0.6836
     10 C6          2.8705   -1.9106    3.4099 C.ar      1 <0>         0.4403
     11 C7          2.6141   -2.8150    4.4358 C.ar      1 <0>        -0.1204
     12 C8          3.1923   -2.6080    5.6749 C.ar      1 <0>         0.0110
     13 C9          4.0108   -1.4994    5.8476 C.ar      1 <0>        -0.1293
     14 C10         4.2218   -0.6429    4.7860 C.ar      1 <0>         0.1369
     15 N2          3.6612   -0.8682    3.6127 N.ar      1 <0>        -0.4633
     16 C11         3.1623   -4.2868    1.4265 C.3       1 <0>        -0.1715
     17 C12         2.6504   -2.5631   -1.4496 C.2       1 <0>         0.0024
     18 C13         2.3544   -3.3317   -2.5150 C.2       1 <0>        -0.0920
     19 C14         3.1524   -3.2493   -3.7012 C.1       1 <0>         0.2297
     20 N3          3.7855   -3.1840   -4.6422 N.1       1 <0>        -0.3787
     21 C15         1.2062   -4.2599   -2.4601 C.2       1 <0>         0.5655
     22 O1          0.2428   -3.9947   -1.7678 O.2       1 <0>        -0.5171
     23 N4          1.2270   -5.4006   -3.1776 N.am      1 <0>        -0.7185
     24 C16         0.0885   -6.3210   -3.1232 C.3       1 <0>         0.1230
     25 C17         0.3650   -7.5279   -4.0219 C.3       1 <0>        -0.0539
     26 C18        -0.8061   -8.4747   -3.9659 C.2       1 <0>        -0.1772
     27 C19        -2.0268   -8.3994   -4.7723 C.ar      1 <0>        -0.1009
     28 C20        -2.4838   -7.5273   -5.7618 C.ar      1 <0>        -0.0738
     29 C21        -3.7052   -7.7356   -6.3384 C.ar      1 <0>        -0.1419
     30 C22        -4.4957   -8.8074   -5.9477 C.ar      1 <0>        -0.0961
     31 C23        -4.0641   -9.6804   -4.9728 C.ar      1 <0>        -0.1289
     32 C24        -2.8242   -9.4878   -4.3729 C.ar      1 <0>         0.0951
     33 N5         -2.1279  -10.1647   -3.3967 N.pl3     1 <0>        -0.5939
     34 C25        -0.9261   -9.5503   -3.1718 C.2       1 <0>         0.0637
     35 H4          1.3979    0.4805    1.9353 H         1 <0>         0.0624
     36 H5         -0.3256    0.0640    2.0907 H         1 <0>         0.0890
     37 H6          0.7994   -0.2906    3.4237 H         1 <0>         0.0523
     38 H7          0.0598   -1.6117   -0.2547 H         1 <0>         0.1082
     39 H8          1.5421   -0.6075   -0.1171 H         1 <0>         0.0832
     40 H9          1.9720   -3.6667    4.2667 H         1 <0>         0.1829
     41 H10         3.0112   -3.2929    6.4901 H         1 <0>         0.1785
     42 H11         4.4771   -1.3091    6.8030 H         1 <0>         0.1867
     43 H12         4.8573    0.2206    4.9161 H         1 <0>         0.2079
     44 H13         3.5824   -4.8243    0.5765 H         1 <0>         0.0789
     45 H14         3.8624   -4.3229    2.2612 H         1 <0>         0.0563
     46 H15         2.2213   -4.7513    1.7212 H         1 <0>         0.0729
     47 H16         3.4111   -1.8005   -1.5286 H         1 <0>         0.1434
     48 H17         1.9957   -5.6122   -3.7301 H         1 <0>         0.4034
     49 H18        -0.0575   -6.6580   -2.0969 H         1 <0>         0.0745
     50 H19        -0.8096   -5.8089   -3.4687 H         1 <0>         0.0765
     51 H20         0.5110   -7.1909   -5.0482 H         1 <0>         0.0780
     52 H21         1.2630   -8.0400   -3.6764 H         1 <0>         0.0772
     53 H22        -1.8744   -6.6908   -6.0704 H         1 <0>         0.1194
     54 H23        -4.0583   -7.0606   -7.1040 H         1 <0>         0.1236
     55 H24        -5.4589   -8.9585   -6.4121 H         1 <0>         0.1272
     56 H25        -4.6867  -10.5112   -4.6754 H         1 <0>         0.1212
     57 H26        -0.1850   -9.8802   -2.4588 H         1 <0>         0.1697
     58 H27        -2.4409  -10.9608   -2.9395 H         1 <0>         0.4180
     59 H28         3.8292   -0.2527    2.8821 H         1 <0>         0.4413
@<TRIPOS>BOND
     1    1    2 1
     2    1   35 1
     3    1   36 1
     4    1   37 1
     5    2    3 1
     6    2    9 1
     7    2    4 1
     8    4    5 1
     9    4   38 1
    10    4   39 1
    11    5    6 1
    12    5    7 1
    13    5   17 1
    14    7    8 1
    15    7    9 1
    16    7   16 1
    17    9   10 1
    18   10   15 ar
    19   10   11 ar
    20   11   12 ar
    21   11   40 1
    22   12   13 ar
    23   12   41 1
    24   13   14 ar
    25   13   42 1
    26   14   15 ar
    27   14   43 1
    28   15   59 1
    29   16   44 1
    30   16   45 1
    31   16   46 1
    32   17   18 2
    33   17   47 1
    34   18   19 1
    35   18   21 1
    36   19   20 3
    37   21   22 2
    38   21   23 am
    39   23   24 1
    40   23   48 1
    41   24   25 1
    42   24   49 1
    43   24   50 1
    44   25   51 1
    45   25   52 1
    46   25   26 1
    47   26   27 1
    48   26   34 2
    49   27   28 ar
    50   27   32 ar
    51   28   29 ar
    52   28   53 1
    53   29   30 ar
    54   29   54 1
    55   30   31 ar
    56   30   55 1
    57   31   32 ar
    58   31   56 1
    59   32   33 1
    60   33   58 1
    61   33   34 1
    62   34   57 1
@<TRIPOS>MOLECULE
ZINC40016932
   52    56     0     0     0
SMALL
USER_CHARGES

@<TRIPOS>ATOM
      1 C1         -0.5323   -0.7350   -1.3464 C.ar      1 <0>        -0.1167
      2 C2          0.3455    0.3168   -1.5377 C.ar      1 <0>        -0.1132
      3 C3          1.6806    0.1713   -1.2197 C.ar      1 <0>        -0.1008
      4 C4          2.1438   -1.0382   -0.7049 C.ar      1 <0>        -0.0463
      5 C5          1.2548   -2.0945   -0.5142 C.ar      1 <0>        -0.1137
      6 C6         -0.0781   -1.9377   -0.8358 C.ar      1 <0>        -0.1220
      7 C7          3.5774   -1.2008   -0.3617 C.ar      1 <0>        -0.0730
      8 C8          4.5617   -0.8435   -1.2802 C.ar      1 <0>        -0.0876
      9 C9          5.8945   -0.9966   -0.9563 C.ar      1 <0>        -0.1230
     10 C10         6.2584   -1.5048    0.2787 C.ar      1 <0>        -0.0956
     11 C11         5.2914   -1.8631    1.1978 C.ar      1 <0>        -0.1168
     12 C12         3.9478   -1.7085    0.8886 C.ar      1 <0>         0.1483
     13 N1          2.9682   -2.0645    1.8193 N.am      1 <0>        -0.6608
     14 C13         3.1661   -3.1181    2.6362 C.2       1 <0>         0.5294
     15 O1          4.2264   -3.7067    2.6208 O.2       1 <0>        -0.4891
     16 C14         2.0698   -3.5648    3.5688 C.3       1 <0>        -0.1366
     17 S1          2.6381   -4.9951    4.5289 S.3       1 <0>        -0.1054
     18 C15         1.2226   -5.4038    5.5871 C.3       1 <0>         0.2937
     19 H1          1.4506   -6.2699    6.2085 H         1 <0>         0.1629
     20 N2          0.8584   -4.2500    6.4270 N.pl3     1 <0>        -0.5943
     21 N3         -0.4560   -3.9213    6.0646 N.2       1 <0>        -0.1515
     22 C16        -0.8822   -4.7337    5.1341 C.2       1 <0>         0.1952
     23 O2          0.0565   -5.6527    4.7896 O.3       1 <0>        -0.3000
     24 C17        -2.1591   -4.6658    4.5596 C.2       1 <0>         0.1299
     25 C18        -3.1708   -3.7515    4.8571 C.ar      1 <0>        -0.1313
     26 C19        -3.2444   -2.6734    5.7644 C.ar      1 <0>        -0.0209
     27 C20        -4.3823   -1.9365    5.8439 C.ar      1 <0>        -0.1405
     28 C21        -5.4929   -2.2178    5.0454 C.ar      1 <0>         0.0463
     29 C22        -5.4920   -3.2381    4.1526 C.ar      1 <0>        -0.2019
     30 C23        -4.3385   -4.0524    4.0132 C.ar      1 <0>         0.3167
     31 N4         -4.0894   -5.0856    3.2324 N.pl3     1 <0>        -0.5903
     32 C24        -2.7265   -5.5642    3.4828 C.3       1 <0>         0.0848
     33 H2         -1.5771   -0.6153   -1.5924 H         1 <0>         0.1233
     34 H3         -0.0145    1.2534   -1.9370 H         1 <0>         0.1281
     35 H4          2.3651    0.9931   -1.3698 H         1 <0>         0.1283
     36 H5          1.6083   -3.0341   -0.1160 H         1 <0>         0.1183
     37 H6         -0.7679   -2.7556   -0.6885 H         1 <0>         0.1191
     38 H7          4.2821   -0.4472   -2.2452 H         1 <0>         0.1306
     39 H8          6.6566   -0.7191   -1.6694 H         1 <0>         0.1307
     40 H9          7.3034   -1.6220    0.5247 H         1 <0>         0.1312
     41 H10         5.5817   -2.2597    2.1595 H         1 <0>         0.1416
     42 H11         2.1459   -1.5534    1.8775 H         1 <0>         0.4113
     43 H12         1.8151   -2.7501    4.2467 H         1 <0>         0.1161
     44 H13         1.1901   -3.8430    2.9885 H         1 <0>         0.1146
     45 H14         1.4114   -3.8101    7.0914 H         1 <0>         0.4718
     46 H15        -2.3994   -2.4354    6.3934 H         1 <0>         0.1610
     47 H16        -4.4296   -1.1134    6.5415 H         1 <0>         0.1574
     48 H17        -6.3775   -1.6057    5.1421 H         1 <0>         0.1625
     49 H18        -6.3667   -3.4303    3.5490 H         1 <0>         0.1627
     50 H19        -2.1271   -5.4874    2.5757 H         1 <0>         0.1787
     51 H20        -2.7515   -6.5970    3.8305 H         1 <0>         0.1802
     52 H21        -4.7092   -5.4667    2.5910 H         1 <0>         0.4569
@<TRIPOS>BOND
     1    1    6 ar
     2    1    2 ar
     3    1   33 1
     4    2    3 ar
     5    2   34 1
     6    3    4 ar
     7    3   35 1
     8    4    5 ar
     9    4    7 1
    10    5    6 ar
    11    5   36 1
    12    6   37 1
    13    7   12 ar
    14    7    8 ar
    15    8    9 ar
    16    8   38 1
    17    9   10 ar
    18    9   39 1
    19   10   11 ar
    20   10   40 1
    21   11   12 ar
    22   11   41 1
    23   12   13 1
    24   13   14 am
    25   13   42 1
    26   14   15 2
    27   14   16 1
    28   16   17 1
    29   16   43 1
    30   16   44 1
    31   17   18 1
    32   18   19 1
    33   18   23 1
    34   18   20 1
    35   20   21 1
    36   20   45 1
    37   21   22 2
    38   22   23 1
    39   22   24 1
    40   24   32 1
    41   24   25 2
    42   25   30 ar
    43   25   26 ar
    44   26   27 ar
    45   26   46 1
    46   27   28 ar
    47   27   47 1
    48   28   29 ar
    49   28   48 1
    50   29   30 ar
    51   29   49 1
    52   30   31 2
    53   31   32 1
    54   31   52 1
    55   32   50 1
    56   32   51 1
@<TRIPOS>MOLECULE
ZINC19593802
   39    41     0     0     0
SMALL
USER_CHARGES
4-[[2-bromo-4-[(2,4,6-trioxohexahydropyrimidin-5-ylidene)methyl]phenoxy]methyl]benzoic acid
@<TRIPOS>ATOM
      1 C1         -0.1556    0.5221   -1.2804 C.ar      1 <0>        -0.1107
      2 C2          0.9230   -0.3171   -1.4679 C.ar      1 <0>        -0.0820
      3 C3          0.8122   -1.6725   -1.1513 C.ar      1 <0>        -0.1048
      4 C4         -0.3913   -2.1689   -0.6465 C.ar      1 <0>        -0.0921
      5 C5         -1.4620   -1.3185   -0.4640 C.ar      1 <0>        -0.1115
      6 C6         -1.3453    0.0236   -0.7798 C.ar      1 <0>        -0.1030
      7 C7         -2.5212    0.9454   -0.5835 C.3       1 <0>         0.1023
      8 O1         -2.4798    1.4963    0.7344 O.3       1 <0>        -0.2919
      9 C8         -3.4747    2.3531    1.0753 C.ar      1 <0>         0.1796
     10 C9         -4.4730    2.6569    0.1549 C.ar      1 <0>        -0.2183
     11 C10        -5.4784    3.5176    0.4891 C.ar      1 <0>         0.0427
     12 C11        -5.5081    4.1002    1.7654 C.ar      1 <0>        -0.1147
     13 C12        -4.5012    3.7938    2.6938 C.ar      1 <0>        -0.0269
     14 C13        -3.4958    2.9205    2.3467 C.ar      1 <0>        -0.1454
     15 Br1        -2.1391    2.4966    3.5939 Br        1 <0>        -0.0493
     16 C14        -6.5837    5.0233    2.1265 C.2       1 <0>         0.0448
     17 C15        -6.9613    6.0213    1.2488 C.2       1 <0>        -0.2720
     18 C16        -6.1627    6.3341    0.0471 C.2       1 <0>         0.5289
     19 O2         -5.1445    5.7180   -0.2044 O.3       1 <0>        -0.5434
     20 N1         -6.5968    7.3179   -0.7676 N.2       1 <0>        -0.7076
     21 C17        -7.7136    8.0086   -0.4994 C.2       1 <0>         0.6646
     22 O3         -8.0457    8.8865   -1.2714 O.2       1 <0>        -0.5970
     23 N2         -8.4837    7.7840    0.5743 N.am      1 <0>        -0.7052
     24 C18        -8.1781    6.8266    1.4741 C.2       1 <0>         0.5682
     25 O4         -8.8856    6.6319    2.4442 O.2       1 <0>        -0.5476
     26 C19         1.9632   -2.5772   -1.3490 C.2       1 <0>         0.4896
     27 O5          1.8639   -3.7558   -1.0723 O.co2     1 <0>        -0.6332
     28 O6          3.1229   -2.0951   -1.8362 O.co2     1 <0>        -0.7551
     29 H1         -0.0712    1.5707   -1.5249 H         1 <0>         0.1194
     30 H2          1.8512    0.0733   -1.8584 H         1 <0>         0.1318
     31 H3         -0.4836   -3.2161   -0.3993 H         1 <0>         0.1272
     32 H4         -2.3934   -1.7010   -0.0733 H         1 <0>         0.1172
     33 H5         -2.4767    1.7589   -1.3225 H         1 <0>         0.0744
     34 H6         -3.4559    0.3807   -0.7157 H         1 <0>         0.0710
     35 H7         -4.4525    2.2096   -0.8279 H         1 <0>         0.1348
     36 H8         -6.2509    3.7506   -0.2289 H         1 <0>         0.1265
     37 H9         -4.5178    4.2381    3.6781 H         1 <0>         0.1350
     38 H10        -7.0920    4.9230    3.0969 H         1 <0>         0.1389
     39 H11        -9.3889    8.3872    0.7378 H         1 <0>         0.4149
@<TRIPOS>BOND
     1    1    6 ar
     2    1    2 ar
     3    1   29 1
     4    2    3 ar
     5    2   30 1
     6    3    4 ar
     7    3   26 1
     8    4    5 ar
     9    4   31 1
    10    5    6 ar
    11    5   32 1
    12    6    7 1
    13    7    8 1
    14    7   33 1
    15    7   34 1
    16    8    9 1
    17    9   14 ar
    18    9   10 ar
    19   10   11 ar
    20   10   35 1
    21   11   12 ar
    22   11   36 1
    23   12   13 ar
    24   12   16 1
    25   13   14 ar
    26   13   37 1
    27   14   15 1
    28   16   17 2
    29   16   38 1
    30   17   24 1
    31   17   18 1
    32   18   19 1
    33   18   20 2
    34   20   21 1
    35   21   22 2
    36   21   23 am
    37   23   24 am
    38   23   39 1
    39   24   25 2
    40   26   27 2
    41   26   28 1
@<TRIPOS>MOLECULE
ZINC39646765
   45    48     0     0     0
SMALL
USER_CHARGES

@<TRIPOS>ATOM
      1 C1         -0.0184    1.5028    0.0103 C.3       1 <0>        -0.1322
      2 C2          0.0021   -0.0041    0.0020 C.2       1 <0>         0.1188
      3 C3          0.0061   -0.6913   -1.1499 C.2       1 <0>        -0.3434
      4 C4          0.0265   -2.1674   -1.0686 C.2       1 <0>         0.2892
      5 N1          0.0301   -2.8951   -2.1601 N.2       1 <0>        -0.5579
      6 C5          0.0156   -2.3368   -3.3603 C.2       1 <0>         0.4379
      7 N2         -0.0025   -1.0400   -3.5541 N.2       1 <0>        -0.5930
      8 C6         -0.0083   -0.1578   -2.5494 C.2       1 <0>         0.5572
      9 O1         -0.0256    1.0422   -2.7654 O.2       1 <0>        -0.4696
     10 C7          0.0209   -3.2390   -4.5674 C.3       1 <0>         0.1246
     11 O2          0.0034   -2.4452   -5.7555 O.3       1 <0>        -0.2855
     12 C8          0.0055   -3.1088   -6.9407 C.ar      1 <0>         0.1247
     13 C9          0.0184   -4.4975   -6.9572 C.ar      1 <0>        -0.2087
     14 C10         0.0202   -5.1740   -8.1582 C.ar      1 <0>        -0.0742
     15 C11         0.0090   -4.4623   -9.3578 C.ar      1 <0>        -0.0687
     16 C12        -0.0039   -3.0676   -9.3377 C.ar      1 <0>        -0.0756
     17 C13        -0.0109   -2.3972   -8.1333 C.ar      1 <0>        -0.1435
     18 C14         0.0114   -5.1862  -10.6506 C.ar      1 <0>        -0.0558
     19 C15         0.0189   -6.5820  -10.6681 C.ar      1 <0>        -0.1286
     20 C16         0.0207   -7.2533  -11.8634 C.ar      1 <0>        -0.0849
     21 C17         0.0149   -6.5388  -13.0661 C.ar      1 <0>        -0.1322
     22 C18         0.0073   -5.1400  -13.0468 C.ar      1 <0>        -0.0849
     23 C19         0.0002   -4.4717  -11.8498 C.ar      1 <0>        -0.1284
     24 C20         0.0172   -7.2586  -14.3516 C.2       1 <0>         0.5193
     25 O3          0.0242   -8.4818  -14.3677 O.co2     1 <0>        -0.6895
     26 O4          0.0121   -6.6331  -15.4028 O.co2     1 <0>        -0.6893
     27 S1          0.0403   -2.5232    0.6703 S.3       1 <0>         0.0346
     28 C21         0.0250   -0.7926    1.2917 C.3       1 <0>        -0.1425
     29 H1         -0.8698   -0.5994    1.8833 H         1 <0>         0.1566
     30 C22         1.2698   -0.4918    2.0860 C.2       1 <0>         0.5293
     31 O5          1.1930   -0.2873    3.2855 O.co2     1 <0>        -0.6527
     32 O6          2.3538   -0.4529    1.5292 O.co2     1 <0>        -0.6484
     33 H2          1.0042    1.8801    0.0026 H         1 <0>         0.1057
     34 H3         -0.5455    1.8639   -0.8728 H         1 <0>         0.1010
     35 H4         -0.5286    1.8543    0.9071 H         1 <0>         0.0820
     36 H5          0.9194   -3.8560   -4.5560 H         1 <0>         0.1008
     37 H6         -0.8604   -3.8800   -4.5458 H         1 <0>         0.1002
     38 H7          0.0274   -5.0479   -6.0280 H         1 <0>         0.1292
     39 H8          0.0305   -6.2539   -8.1704 H         1 <0>         0.1281
     40 H9         -0.0125   -2.5136  -10.2648 H         1 <0>         0.1319
     41 H10        -0.0250   -1.3174   -8.1170 H         1 <0>         0.1322
     42 H11         0.0237   -7.1333   -9.7394 H         1 <0>         0.1166
     43 H12         0.0268   -8.3333  -11.8766 H         1 <0>         0.1263
     44 H13         0.0029   -4.5869  -13.9744 H         1 <0>         0.1264
     45 H14        -0.0097   -3.3919  -11.8345 H         1 <0>         0.1172
@<TRIPOS>BOND
     1    1    2 1
     2    1   33 1
     3    1   34 1
     4    1   35 1
     5    2   28 1
     6    2    3 2
     7    3    8 1
     8    3    4 1
     9    4    5 2
    10    4   27 1
    11    5    6 1
    12    6    7 2
    13    6   10 1
    14    7    8 1
    15    8    9 2
    16   10   11 1
    17   10   36 1
    18   10   37 1
    19   11   12 1
    20   12   17 ar
    21   12   13 ar
    22   13   14 ar
    23   13   38 1
    24   14   15 ar
    25   14   39 1
    26   15   16 ar
    27   15   18 1
    28   16   17 ar
    29   16   40 1
    30   17   41 1
    31   18   23 ar
    32   18   19 ar
    33   19   20 ar
    34   19   42 1
    35   20   21 ar
    36   20   43 1
    37   21   22 ar
    38   21   24 1
    39   22   23 ar
    40   22   44 1
    41   23   45 1
    42   24   25 2
    43   24   26 1
    44   27   28 1
    45   28   29 1
    46   28   30 1
    47   30   31 2
    48   30   32 1
@<TRIPOS>MOLECULE
ZINC13214053
   42    45     0     0     0
SMALL
USER_CHARGES

@<TRIPOS>ATOM
      1 C1         -0.1655    1.3891   -0.0511 C.3       1 <0>        -0.0893
      2 C2         -0.0236   -0.1110   -0.0287 C.2       1 <0>        -0.1498
      3 C3         -0.0756   -0.8381   -1.2031 C.2       1 <0>        -0.1438
      4 C4          0.0554   -2.1861   -1.1481 C.2       1 <0>        -0.2063
      5 S1          0.2598   -2.4660    0.6033 S.3       1 <0>         0.0710
      6 C5          0.1624   -0.7670    1.1428 C.2       1 <0>        -0.1060
      7 C6          0.2602   -0.2075    2.5386 C.3       1 <0>         0.3049
      8 H1         -0.1035    0.8199    2.5566 H         1 <0>         0.0911
      9 C7          1.6911   -0.2608    3.0209 C.2       1 <0>        -0.5064
     10 C8          1.7031   -1.0486    4.1210 C.2       1 <0>         0.2795
     11 C9          0.3326   -1.5244    4.3926 C.2       1 <0>         0.5034
     12 O1          0.0168   -2.2512    5.3142 O.2       1 <0>        -0.4922
     13 N1         -0.5168   -1.0344    3.4696 N.am      1 <0>        -0.5512
     14 C10        -1.8933   -1.2709    3.4080 C.ar      1 <0>         0.1638
     15 C11        -2.6515   -0.7023    2.3905 C.ar      1 <0>        -0.1638
     16 C12        -4.0128   -0.9327    2.3246 C.ar      1 <0>        -0.1166
     17 C13        -4.6294   -1.7288    3.2681 C.ar      1 <0>        -0.1172
     18 C14        -3.8771   -2.3056    4.2946 C.ar      1 <0>        -0.1113
     19 C15        -2.5011   -2.0769    4.3578 C.ar      1 <0>        -0.1185
     20 C16        -4.5334   -3.1573    5.3051 C.2       1 <0>         0.5226
     21 O2         -5.7380   -3.3595    5.2451 O.co2     1 <0>        -0.6977
     22 O3         -3.8728   -3.6610    6.2025 O.co2     1 <0>        -0.6804
     23 O4          2.7987   -1.3528    4.8557 O.3       1 <0>        -0.6471
     24 C17         2.8451    0.4116    2.4133 C.2       1 <0>         0.5480
     25 O5          3.7298   -0.2462    1.8942 O.2       1 <0>        -0.4544
     26 C18         2.9338    1.8747    2.4307 C.2       1 <0>        -0.0533
     27 C19         3.9953    2.6291    1.9794 C.2       1 <0>        -0.1627
     28 C20         3.6488    3.9717    2.1892 C.2       1 <0>        -0.2282
     29 C21         2.4171    3.9840    2.7477 C.2       1 <0>        -0.0323
     30 O6          1.9883    2.7228    2.8859 O.3       1 <0>        -0.1406
     31 H2          0.8234    1.8474   -0.0646 H         1 <0>         0.0611
     32 H3         -0.7171    1.6887   -0.9422 H         1 <0>         0.0576
     33 H4         -0.7054    1.7163    0.8375 H         1 <0>         0.0640
     34 H5         -0.2188   -0.3396   -2.1505 H         1 <0>         0.1225
     35 H6          0.0398   -2.9045   -1.9544 H         1 <0>         0.1763
     36 H7         -2.1751   -0.0780    1.6491 H         1 <0>         0.1149
     37 H8         -4.5961   -0.4878    1.5320 H         1 <0>         0.1117
     38 H9         -5.6934   -1.9057    3.2134 H         1 <0>         0.1208
     39 H10        -1.9132   -2.5232    5.1463 H         1 <0>         0.1571
     40 H11         4.9139    2.2589    1.5487 H         1 <0>         0.1517
     41 H12         4.2528    4.8345    1.9501 H         1 <0>         0.1465
     42 H13         1.8662    4.8684    3.0321 H         1 <0>         0.2006
@<TRIPOS>BOND
     1    1    2 1
     2    1   31 1
     3    1   32 1
     4    1   33 1
     5    2    6 2
     6    2    3 1
     7    3    4 2
     8    3   34 1
     9    4    5 1
    10    4   35 1
    11    5    6 1
    12    6    7 1
    13    7    8 1
    14    7   13 1
    15    7    9 1
    16    9   10 2
    17    9   24 1
    18   10   11 1
    19   10   23 1
    20   11   12 2
    21   11   13 am
    22   13   14 1
    23   14   19 ar
    24   14   15 ar
    25   15   16 ar
    26   15   36 1
    27   16   17 ar
    28   16   37 1
    29   17   18 ar
    30   17   38 1
    31   18   19 ar
    32   18   20 1
    33   19   39 1
    34   20   21 2
    35   20   22 1
    36   24   25 2
    37   24   26 1
    38   26   30 1
    39   26   27 2
    40   27   28 1
    41   27   40 1
    42   28   29 2
    43   28   41 1
    44   29   30 1
    45   29   42 1
@<TRIPOS>MOLECULE
ZINC13252033
   43    45     0     0     0
SMALL
USER_CHARGES

@<TRIPOS>ATOM
      1 C1         -1.1370    1.3970    0.4698 C.3       1 <0>        -0.1489
      2 C2         -0.7360   -0.0698    0.3000 C.3       1 <0>        -0.1031
      3 H1         -1.5539   -0.7105    0.6297 H         1 <0>         0.1022
      4 C3         -0.4321   -0.3482   -1.1734 C.3       1 <0>        -0.1075
      5 C4         -0.0312   -1.8149   -1.3432 C.3       1 <0>        -0.1191
      6 C5          1.2138   -2.1039   -0.5022 C.3       1 <0>        -0.1129
      7 C6          0.9099   -1.8256    0.9712 C.3       1 <0>        -0.1374
      8 C7          0.5090   -0.3588    1.1410 C.3       1 <0>         0.1589
      9 H2          1.3269    0.2819    0.8114 H         1 <0>         0.1006
     10 N1          0.2180   -0.0923    2.5519 N.pl3     1 <0>        -0.8728
     11 C8         -0.8108   -0.7750    3.1903 C.2       1 <0>         0.2745
     12 N2         -1.6273   -1.6932    2.7119 N.2       1 <0>        -0.3255
     13 N3         -2.5877   -2.2470    3.5264 N.2       1 <0>        -0.3602
     14 C9         -2.6871   -1.8569    4.7827 C.2       1 <0>         0.2620
     15 S1         -3.8092   -2.3904    6.0321 S.3       1 <0>        -0.7175
     16 S2         -1.3749   -0.6488    4.8805 S.3       1 <0>        -0.0380
     17 S3          1.1146    1.0224    3.3860 S.o2      1 <0>         2.6732
     18 O1          1.3487    2.1043    2.4949 O.2       1 <0>        -0.9361
     19 O2          0.4780    1.1961    4.6445 O.2       1 <0>        -0.9149
     20 C10         2.6837    0.2901    3.7122 C.ar      1 <0>        -0.6840
     21 C11         3.8228    0.8248    3.1488 C.ar      1 <0>         0.0238
     22 C12         5.0664    0.2428    3.4086 C.ar      1 <0>        -0.1527
     23 C13         5.1465   -0.8789    4.2388 C.ar      1 <0>        -0.0197
     24 C14         4.0001   -1.4036    4.7957 C.ar      1 <0>        -0.1459
     25 C15         2.7707   -0.8182    4.5386 C.ar      1 <0>         0.0337
     26 Cl1         1.3324   -1.4810    5.2497 Cl        1 <0>        -0.0246
     27 C16         6.2888    0.8091    2.8090 C.2       1 <0>         0.5247
     28 O3          6.2156    1.7904    2.0827 O.co2     1 <0>        -0.6785
     29 O4          7.3759    0.2976    3.0381 O.co2     1 <0>        -0.6846
     30 H3         -0.2883    2.0361    0.2263 H         1 <0>         0.0629
     31 H4         -1.9677    1.6261   -0.1976 H         1 <0>         0.0540
     32 H5         -1.4405    1.5735    1.5017 H         1 <0>         0.0479
     33 H6         -1.3191   -0.1422   -1.7725 H         1 <0>         0.0632
     34 H7          0.3858    0.2926   -1.5030 H         1 <0>         0.0625
     35 H8         -0.8491   -2.4556   -1.0136 H         1 <0>         0.0667
     36 H9          0.1853   -2.0132   -2.3929 H         1 <0>         0.0575
     37 H10         1.4994   -3.1489   -0.6232 H         1 <0>         0.0633
     38 H11         2.0317   -1.4632   -0.8318 H         1 <0>         0.0624
     39 H12         0.0920   -2.4663    1.3009 H         1 <0>         0.0935
     40 H13         1.7969   -2.0315    1.5704 H         1 <0>         0.0636
     41 H14         3.7541    1.6914    2.5079 H         1 <0>         0.1546
     42 H15         6.1046   -1.3336    4.4432 H         1 <0>         0.1427
     43 H16         4.0606   -2.2704    5.4371 H         1 <0>         0.1355
@<TRIPOS>BOND
     1    1    2 1
     2    1   30 1
     3    1   31 1
     4    1   32 1
     5    2    3 1
     6    2    8 1
     7    2    4 1
     8    4    5 1
     9    4   33 1
    10    4   34 1
    11    5    6 1
    12    5   35 1
    13    5   36 1
    14    6    7 1
    15    6   37 1
    16    6   38 1
    17    7    8 1
    18    7   39 1
    19    7   40 1
    20    8    9 1
    21    8   10 1
    22   10   11 1
    23   10   17 1
    24   11   16 1
    25   11   12 2
    26   12   13 1
    27   13   14 2
    28   14   15 1
    29   14   16 1
    30   17   18 2
    31   17   19 2
    32   17   20 1
    33   20   25 ar
    34   20   21 ar
    35   21   22 ar
    36   21   41 1
    37   22   23 ar
    38   22   27 1
    39   23   24 ar
    40   23   42 1
    41   24   25 ar
    42   24   43 1
    43   25   26 1
    44   27   28 2
    45   27   29 1
@<TRIPOS>MOLECULE
ZINC59678985
   39    41     0     0     0
SMALL
USER_CHARGES

@<TRIPOS>ATOM
      1 C1          0.2764    0.5336   -1.1312 C.ar      1 <0>        -0.0833
      2 C2          1.4235    1.2895   -1.2730 C.ar      1 <0>        -0.1014
      3 C3          2.2222    1.5502   -0.1733 C.ar      1 <0>        -0.0319
      4 C4          1.8736    1.0548    1.0709 C.ar      1 <0>        -0.1016
      5 C5          0.7275    0.2984    1.2180 C.ar      1 <0>        -0.0712
      6 C6         -0.0755    0.0354    0.1162 C.ar      1 <0>         0.1693
      7 N1         -1.2391   -0.7314    0.2628 N.am      1 <0>        -0.5149
      8 C7         -1.2135   -2.0441   -0.0529 C.2       1 <0>         0.5639
      9 O1         -0.1969   -2.5729   -0.4623 O.2       1 <0>        -0.5069
     10 C8         -2.4609   -2.8163    0.1160 C.2       1 <0>        -0.2855
     11 C9         -2.5223   -4.1672   -0.1837 C.2       1 <0>         0.1121
     12 C10        -3.8181   -4.8366   -0.2778 C.ar      1 <0>        -0.1472
     13 C11        -4.8756   -4.2308   -0.9747 C.ar      1 <0>         0.0488
     14 C12        -6.0845   -4.8585   -1.0608 C.ar      1 <0>        -0.2230
     15 C13        -6.2754   -6.0990   -0.4600 C.ar      1 <0>         0.1814
     16 C14        -5.2344   -6.7108    0.2344 C.ar      1 <0>        -0.1010
     17 C15        -4.0089   -6.0910    0.3235 C.ar      1 <0>        -0.0315
     18 Cl1        -5.4808   -8.2583    0.9816 Cl        1 <0>        -0.0664
     19 O2         -7.4806   -6.7150   -0.5506 O.3       1 <0>        -0.2652
     20 C16        -8.5050   -6.0326   -1.2765 C.3       1 <0>        -0.0111
     21 C17        -9.7629   -6.8624   -1.2704 C.2       1 <0>         0.5040
     22 O3         -9.7805   -7.9385   -0.6975 O.co2     1 <0>        -0.6697
     23 O4        -10.7630   -6.4578   -1.8384 O.co2     1 <0>        -0.6905
     24 C18        -3.6357   -2.0853    0.6178 C.2       1 <0>         0.4917
     25 O5         -4.8152   -2.7162    0.8013 O.3       1 <0>        -0.5608
     26 N2         -3.5093   -0.7977    0.8849 N.2       1 <0>        -0.5918
     27 C19        -2.3583   -0.1508    0.7195 C.2       1 <0>         0.5450
     28 S1         -2.3054    1.5166    1.1037 S.2       1 <0>        -0.6692
     29 Cl2         3.6640    2.4997   -0.3551 Cl        1 <0>        -0.0829
     30 H1         -0.3487    0.3339   -1.9889 H         1 <0>         0.1295
     31 H2          1.6977    1.6772   -2.2430 H         1 <0>         0.1346
     32 H3          2.4985    1.2596    1.9276 H         1 <0>         0.1348
     33 H4          0.4562   -0.0886    2.1891 H         1 <0>         0.1308
     34 H5         -1.6127   -4.7258   -0.3478 H         1 <0>         0.1417
     35 H6         -4.7326   -3.2678   -1.4424 H         1 <0>         0.1217
     36 H7         -6.8965   -4.3902   -1.5971 H         1 <0>         0.1363
     37 H8         -3.1987   -6.5654    0.8572 H         1 <0>         0.1348
     38 H9         -8.7030   -5.0692   -0.8067 H         1 <0>         0.0649
     39 H10        -8.1785   -5.8752   -2.3045 H         1 <0>         0.0617
@<TRIPOS>BOND
     1    1    6 ar
     2    1    2 ar
     3    1   30 1
     4    2    3 ar
     5    2   31 1
     6    3    4 ar
     7    3   29 1
     8    4    5 ar
     9    4   32 1
    10    5    6 ar
    11    5   33 1
    12    6    7 1
    13    7   27 1
    14    7    8 am
    15    8    9 2
    16    8   10 1
    17   10   11 2
    18   10   24 1
    19   11   12 1
    20   11   34 1
    21   12   17 ar
    22   12   13 ar
    23   13   14 ar
    24   13   35 1
    25   14   15 ar
    26   14   36 1
    27   15   16 ar
    28   15   19 1
    29   16   17 ar
    30   16   18 1
    31   17   37 1
    32   19   20 1
    33   20   21 1
    34   20   38 1
    35   20   39 1
    36   21   22 2
    37   21   23 1
    38   24   25 1
    39   24   26 2
    40   26   27 1
    41   27   28 2
@<TRIPOS>MOLECULE
ZINC13300314
   49    51     0     0     0
SMALL
USER_CHARGES
3-[4-(4-carboxyphenyl)sulfonylpiperazin-1-yl]sulfonyl-4-methyl-benzoic acid
@<TRIPOS>ATOM
      1 C1          2.2524    5.0966   -0.5946 C.3       1 <0>        -0.1886
      2 C2          1.1610    5.9362   -1.2069 C.ar      1 <0>         0.0121
      3 C3          1.3633    6.5388   -2.4362 C.ar      1 <0>        -0.1595
      4 C4          0.3687    7.3086   -3.0023 C.ar      1 <0>        -0.0196
      5 C5         -0.8446    7.4791   -2.3322 C.ar      1 <0>        -0.1391
      6 C6         -1.0438    6.8641   -1.0948 C.ar      1 <0>         0.0154
      7 C7         -0.0383    6.1013   -0.5374 C.ar      1 <0>        -0.6933
      8 S1         -0.2849    5.3300    1.0275 S.o2      1 <0>         2.6945
      9 O1         -1.5671    5.7384    1.4841 O.2       1 <0>        -0.9538
     10 O2          0.8988    5.5530    1.7813 O.2       1 <0>        -0.9595
     11 N1         -0.3754    3.6982    0.7602 N.pl3     1 <0>        -0.9920
     12 C8          0.8324    2.8628    0.8170 C.3       1 <0>         0.0919
     13 C9          0.9602    2.0955   -0.5048 C.3       1 <0>         0.0977
     14 N2         -0.3293    1.4568   -0.8036 N.pl3     1 <0>        -0.9931
     15 C10        -1.5362    2.2930   -0.8660 C.3       1 <0>         0.1034
     16 C11        -1.6649    3.0595    0.4613 C.3       1 <0>         0.1030
     17 S2         -0.4196   -0.1748   -1.0720 S.o2      1 <0>         2.6935
     18 O3         -1.5878   -0.3942   -1.8507 O.2       1 <0>        -0.9589
     19 O4          0.8706   -0.5878   -1.5010 O.2       1 <0>        -0.9613
     20 C12        -0.7020   -0.9445    0.4876 C.ar      1 <0>        -0.6826
     21 C13         0.3721   -1.3438    1.2631 C.ar      1 <0>        -0.0396
     22 C14         0.1582   -1.9425    2.4873 C.ar      1 <0>        -0.0997
     23 C15        -1.1459   -2.1550    2.9385 C.ar      1 <0>        -0.0554
     24 C16        -2.2253   -1.7544    2.1485 C.ar      1 <0>        -0.1079
     25 C17        -1.9970   -1.1520    0.9287 C.ar      1 <0>        -0.0374
     26 C18        -1.3827   -2.8004    4.2461 C.2       1 <0>         0.4844
     27 O5         -2.5184   -2.9835    4.6362 O.co2     1 <0>        -0.6226
     28 C19        -1.9145    8.3021   -2.9325 C.2       1 <0>         0.4912
     29 O6         -2.9687    8.4487   -2.3472 O.co2     1 <0>        -0.6248
     30 H1          2.0779    4.0465   -0.8291 H         1 <0>         0.0874
     31 H2          3.2170    5.4037   -0.9986 H         1 <0>         0.0800
     32 H3          2.2517    5.2323    0.4870 H         1 <0>         0.1106
     33 H4          2.3019    6.4058   -2.9535 H         1 <0>         0.1254
     34 H5          0.5277    7.7781   -3.9619 H         1 <0>         0.1371
     35 H6         -1.9814    6.9883   -0.5733 H         1 <0>         0.1469
     36 H7          0.7503    2.1568    1.6434 H         1 <0>         0.0863
     37 H8          1.7099    3.4933    0.9603 H         1 <0>         0.1101
     38 H9          1.7333    1.3327   -0.4117 H         1 <0>         0.1051
     39 H10         1.2215    2.7852   -1.3073 H         1 <0>         0.0869
     40 H11        -1.4500    2.9988   -1.6922 H         1 <0>         0.0855
     41 H12        -2.4121    1.6609   -1.0115 H         1 <0>         0.1058
     42 H13        -1.9247    2.3676    1.2624 H         1 <0>         0.0859
     43 H14        -2.4386    3.8220    0.3713 H         1 <0>         0.1066
     44 H15         1.3803   -1.1825    0.9110 H         1 <0>         0.1332
     45 H16         0.9976   -2.2497    3.0936 H         1 <0>         0.1395
     46 H17        -3.2365   -1.9155    2.4918 H         1 <0>         0.1363
     47 H18        -2.8309   -0.8413    0.3168 H         1 <0>         0.1340
     48 O7         -0.3392   -3.1857    5.0059 O.co2     1 <0>        -0.7461
     49 O8         -1.7209    8.8901   -4.1289 O.co2     1 <0>        -0.7547
@<TRIPOS>BOND
     1    1    2 1
     2    1   30 1
     3    1   31 1
     4    1   32 1
     5    2    7 ar
     6    2    3 ar
     7    3    4 ar
     8    3   33 1
     9    4    5 ar
    10    4   34 1
    11    5    6 ar
    12    5   28 1
    13    6    7 ar
    14    6   35 1
    15    7    8 1
    16    8    9 2
    17    8   10 2
    18    8   11 1
    19   11   16 1
    20   11   12 1
    21   12   13 1
    22   12   36 1
    23   12   37 1
    24   13   14 1
    25   13   38 1
    26   13   39 1
    27   14   15 1
    28   14   17 1
    29   15   16 1
    30   15   40 1
    31   15   41 1
    32   16   42 1
    33   16   43 1
    34   17   18 2
    35   17   19 2
    36   17   20 1
    37   20   25 ar
    38   20   21 ar
    39   21   22 ar
    40   21   44 1
    41   22   23 ar
    42   22   45 1
    43   23   24 ar
    44   23   26 1
    45   24   25 ar
    46   24   46 1
    47   25   47 1
    48   26   27 2
    49   26   48 1
    50   28   29 2
    51   28   49 1
@<TRIPOS>MOLECULE
ZINC20025327
   39    41     0     0     0
SMALL
USER_CHARGES
2-[2-[(E)-[1-(4-fluorophenyl)-4,6-dioxo-2-thioxo-hexahydropyrimidin-5-ylidene]methyl]phenoxy]acetic acid
@<TRIPOS>ATOM
      1 C1          0.4476    2.3756   -0.5859 C.ar      1 <0>        -0.1812
      2 C2          1.1881    1.7862    0.4281 C.ar      1 <0>        -0.0600
      3 C3          0.8264    1.9559    1.7499 C.ar      1 <0>        -0.2303
      4 C4         -0.2870    2.7153    2.0748 C.ar      1 <0>         0.1696
      5 C5         -1.0393    3.3208    1.0508 C.ar      1 <0>        -0.1296
      6 C6         -0.6581    3.1378   -0.2870 C.ar      1 <0>         0.0124
      7 C7         -2.2128    4.1291    1.3783 C.2       1 <0>         0.1071
      8 C8         -2.3660    5.3830    0.8188 C.2       1 <0>        -0.3050
      9 C9         -1.2774    6.0251    0.0553 C.2       1 <0>         0.5315
     10 O1         -0.2098    5.4639   -0.1032 O.3       1 <0>        -0.4998
     11 N1         -1.5014    7.2487   -0.4666 N.2       1 <0>        -0.6236
     12 C10        -2.6708    7.8807   -0.2948 C.2       1 <0>         0.5492
     13 S1         -2.8606    9.4348   -0.9876 S.2       1 <0>        -0.7084
     14 N2         -3.6997    7.3619    0.3896 N.am      1 <0>        -0.5145
     15 C11        -3.6232    6.1432    0.9629 C.2       1 <0>         0.5640
     16 O2         -4.5641    5.6835    1.5819 O.2       1 <0>        -0.5050
     17 C12        -4.8834    8.1029    0.5122 C.ar      1 <0>         0.1615
     18 C13        -5.0530    8.9697    1.5834 C.ar      1 <0>        -0.0619
     19 C14        -6.2177    9.7028    1.6996 C.ar      1 <0>        -0.1424
     20 C15        -7.2207    9.5652    0.7547 C.ar      1 <0>         0.0910
     21 C16        -7.0555    8.6973   -0.3117 C.ar      1 <0>        -0.1447
     22 C17        -5.8898    7.9667   -0.4344 C.ar      1 <0>        -0.0635
     23 F1         -8.3616   10.2790    0.8730 F         1 <0>        -0.1468
     24 O3         -0.6463    2.8781    3.3720 O.3       1 <0>        -0.2837
     25 C18         0.1684    2.2379    4.3561 C.3       1 <0>         0.0172
     26 C19        -0.3805    2.5286    5.7291 C.2       1 <0>         0.4697
     27 O4         -1.3682    3.2136    5.8523 O.co2     1 <0>        -0.6094
     28 O5          0.2277    2.0264    6.8152 O.co2     1 <0>        -0.7615
     29 H1          0.7405    2.2351   -1.6159 H         1 <0>         0.1182
     30 H2          2.0540    1.1896    0.1819 H         1 <0>         0.1177
     31 H3          1.4094    1.4924    2.5320 H         1 <0>         0.1285
     32 H4         -1.2312    3.5945   -1.0803 H         1 <0>         0.1204
     33 H5         -2.9737    3.7389    2.0702 H         1 <0>         0.1482
     34 H6         -4.2729    9.0739    2.3229 H         1 <0>         0.1310
     35 H7         -6.3483   10.3804    2.5303 H         1 <0>         0.1357
     36 H8         -7.8385    8.5919   -1.0480 H         1 <0>         0.1345
     37 H9         -5.7612    7.2902   -1.2664 H         1 <0>         0.1290
     38 H10         0.1669    1.1516    4.1831 H         1 <0>         0.0673
     39 H11         1.1977    2.6192    4.2844 H         1 <0>         0.0677
@<TRIPOS>BOND
     1    1    6 ar
     2    1    2 ar
     3    1   29 1
     4    2    3 ar
     5    2   30 1
     6    3    4 ar
     7    3   31 1
     8    4    5 ar
     9    4   24 1
    10    5    6 ar
    11    5    7 1
    12    6   32 1
    13    7    8 2
    14    7   33 1
    15    8   15 1
    16    8    9 1
    17    9   10 1
    18    9   11 2
    19   11   12 1
    20   12   13 2
    21   12   14 1
    22   14   15 am
    23   14   17 1
    24   15   16 2
    25   17   22 ar
    26   17   18 ar
    27   18   19 ar
    28   18   34 1
    29   19   20 ar
    30   19   35 1
    31   20   21 ar
    32   20   23 1
    33   21   22 ar
    34   21   36 1
    35   22   37 1
    36   24   25 1
    37   25   26 1
    38   25   38 1
    39   25   39 1
    40   26   27 2
    41   26   28 1
@<TRIPOS>MOLECULE
ZINC13031052
   48    50     0     0     0
SMALL
USER_CHARGES

@<TRIPOS>ATOM
      1 C1         -0.0178    1.4648    0.0101 C.3       1 <0>         0.0268
      2 N1          0.0021   -0.0041    0.0020 N.3       1 <0>        -0.5419
      3 C2         -1.3591   -0.5485   -0.0908 C.3       1 <0>         0.0455
      4 C3         -1.2864   -2.0676   -0.2787 C.3       1 <0>         0.1228
      5 N2         -0.4627   -2.6330    0.8007 N.pl3     1 <0>        -1.0056
      6 C4          0.8636   -2.0457    1.0444 C.3       1 <0>         0.1217
      7 C5          0.7062   -0.5275    1.1802 C.3       1 <0>         0.0459
      8 S1         -1.0137   -3.8975    1.7170 S.o2      1 <0>         2.6980
      9 O1         -0.3116   -3.8411    2.9511 O.2       1 <0>        -0.9783
     10 O2         -2.4325   -3.8630    1.6455 O.2       1 <0>        -0.9783
     11 C6         -0.5051   -5.3820    0.9157 C.ar      1 <0>        -0.7796
     12 C7         -1.3240   -5.9707   -0.0305 C.ar      1 <0>         0.0108
     13 C8         -0.9284   -7.1343   -0.6605 C.ar      1 <0>        -0.1957
     14 C9          0.2937   -7.7133   -0.3428 C.ar      1 <0>         0.3292
     15 C10         1.1139   -7.1193    0.6081 C.ar      1 <0>        -0.2792
     16 C11         0.7146   -5.9527    1.2302 C.ar      1 <0>         0.0308
     17 N3          0.6967   -8.8903   -0.9777 N.2       1 <0>        -1.0729
     18 S2          2.1540   -9.5790   -0.5976 S.o2      1 <0>         2.6151
     19 O3          3.1577   -8.6737   -1.0360 O.2       1 <0>        -1.0223
     20 O4          2.0577  -10.0146    0.7516 O.2       1 <0>        -1.0318
     21 C12         2.3180  -11.0293   -1.5845 C.ar      1 <0>        -0.6375
     22 C13         1.8474  -12.2424   -1.1127 C.ar      1 <0>        -0.0332
     23 C14         1.9719  -13.3865   -1.8807 C.ar      1 <0>        -0.1663
     24 C15         2.5673  -13.3254   -3.1236 C.ar      1 <0>        -0.0464
     25 C16         3.0446  -12.1045   -3.6064 C.ar      1 <0>        -0.1627
     26 C17         2.9099  -10.9521   -2.8276 C.ar      1 <0>         0.0141
     27 C18         3.6825  -12.0311   -4.9347 C.2       1 <0>         0.5254
     28 O5          3.7944  -13.0406   -5.6159 O.co2     1 <0>        -0.6953
     29 O6          4.0994  -10.9608   -5.3545 O.co2     1 <0>        -0.6832
     30 H1          1.0047    1.8421    0.0024 H         1 <0>         0.0675
     31 H2         -0.5450    1.8259   -0.8730 H         1 <0>         0.0671
     32 H3         -0.5280    1.8163    0.9069 H         1 <0>         0.0220
     33 H4         -1.9051   -0.3210    0.8248 H         1 <0>         0.0372
     34 H5         -1.8727   -0.1009   -0.9417 H         1 <0>         0.0845
     35 H6         -2.2899   -2.4906   -0.2334 H         1 <0>         0.0968
     36 H7         -0.8330   -2.2960   -1.2432 H         1 <0>         0.0780
     37 H8          1.2814   -2.4543    1.9645 H         1 <0>         0.0970
     38 H9          1.5237   -2.2720    0.2071 H         1 <0>         0.0786
     39 H10         1.6905   -0.0647    1.2511 H         1 <0>         0.0848
     40 H11         0.1315   -0.3003    2.0781 H         1 <0>         0.0375
     41 H12        -2.2741   -5.5202   -0.2767 H         1 <0>         0.1179
     42 H13        -1.5686   -7.5937   -1.3990 H         1 <0>         0.1210
     43 H14         2.0645   -7.5671    0.8577 H         1 <0>         0.1061
     44 H15         1.3538   -5.4880    1.9664 H         1 <0>         0.1158
     45 H16         1.3811  -12.2962   -0.1400 H         1 <0>         0.1268
     46 H17         1.6024  -14.3296   -1.5062 H         1 <0>         0.1183
     47 H18         2.6644  -14.2194   -3.7217 H         1 <0>         0.1276
     48 H19         3.2724  -10.0040   -3.1966 H         1 <0>         0.1400
@<TRIPOS>BOND
     1    1    2 1
     2    1   30 1
     3    1   31 1
     4    1   32 1
     5    2    7 1
     6    2    3 1
     7    3    4 1
     8    3   33 1
     9    3   34 1
    10    4    5 1
    11    4   35 1
    12    4   36 1
    13    5    6 1
    14    5    8 1
    15    6    7 1
    16    6   37 1
    17    6   38 1
    18    7   39 1
    19    7   40 1
    20    8    9 2
    21    8   10 2
    22    8   11 1
    23   11   16 ar
    24   11   12 ar
    25   12   13 ar
    26   12   41 1
    27   13   14 ar
    28   13   42 1
    29   14   15 ar
    30   14   17 1
    31   15   16 ar
    32   15   43 1
    33   16   44 1
    34   17   18 1
    35   18   19 2
    36   18   20 2
    37   18   21 1
    38   21   26 ar
    39   21   22 ar
    40   22   23 ar
    41   22   45 1
    42   23   24 ar
    43   23   46 1
    44   24   25 ar
    45   24   47 1
    46   25   26 ar
    47   25   27 1
    48   26   48 1
    49   27   28 2
    50   27   29 1
@<TRIPOS>MOLECULE
ZINC47383478
   36    37     0     0     0
SMALL
USER_CHARGES

@<TRIPOS>ATOM
      1 C1         -0.0184    1.5028    0.0103 C.3       1 <0>        -0.1105
      2 C2          0.0021   -0.0041    0.0020 C.ar      1 <0>        -0.1176
      3 C3          0.0057   -0.6888   -1.1991 C.ar      1 <0>        -0.0246
      4 C4          0.0245   -2.0707   -1.2067 C.ar      1 <0>        -0.0837
      5 C5          0.0400   -2.7685   -0.0132 C.ar      1 <0>         0.0338
      6 C6          0.0373   -2.0840    1.1875 C.ar      1 <0>        -0.6228
      7 C7          0.0229   -0.7015    1.1951 C.ar      1 <0>         0.0780
      8 C8          0.0251    0.0449    2.5043 C.3       1 <0>        -0.1587
      9 S1          0.0565   -2.9732    2.7086 S.o2      1 <0>         2.6051
     10 O1         -0.9722   -2.4180    3.5166 O.2       1 <0>        -1.0181
     11 O2          0.0996   -4.3530    2.3718 O.2       1 <0>        -1.0222
     12 N1          1.4897   -2.6247    3.4614 N.2       1 <0>        -1.0860
     13 C9          1.7846   -3.1969    4.7048 C.ar      1 <0>         0.2277
     14 C10         2.9792   -2.9009    5.3355 C.ar      1 <0>        -0.0873
     15 C11         3.2706   -3.4744    6.5776 C.ar      1 <0>        -0.1416
     16 C12         2.3498   -4.3448    7.1741 C.ar      1 <0>         0.0612
     17 C13         1.1593   -4.6331    6.5344 C.ar      1 <0>        -0.1566
     18 C14         0.8716   -4.0595    5.3081 C.ar      1 <0>        -0.0454
     19 F1         -0.2969   -4.3412    4.6911 F         1 <0>        -0.1442
     20 F2          2.6252   -4.9024    8.3735 F         1 <0>        -0.1361
     21 C15         4.5403   -3.1646    7.2550 C.2       1 <0>         0.5272
     22 O3          5.3432   -2.4042    6.7316 O.co2     1 <0>        -0.6920
     23 O4          4.7927   -3.6675    8.3413 O.co2     1 <0>        -0.6864
     24 N2          0.0274   -2.8038   -2.4926 N.pl3     1 <0>         0.0441
     25 O5          0.0134   -2.1937   -3.5363 O.2       1 <0>        -0.1763
     26 O6          0.0438   -4.0127   -2.4993 O.3       1 <0>        -0.1623
     27 H1          1.0042    1.8801    0.0026 H         1 <0>         0.0786
     28 H2         -0.5455    1.8639   -0.8728 H         1 <0>         0.0690
     29 H3         -0.5286    1.8543    0.9071 H         1 <0>         0.0791
     30 H4         -0.0064   -0.1437   -2.1314 H         1 <0>         0.1510
     31 H5          0.0540   -3.8484   -0.0191 H         1 <0>         0.1663
     32 H6         -1.0018    0.2109    2.8297 H         1 <0>         0.0964
     33 H7          0.5541   -0.5412    3.2558 H         1 <0>         0.1141
     34 H8          0.5248    1.0049    2.3743 H         1 <0>         0.0817
     35 H9          3.6854   -2.2292    4.8702 H         1 <0>         0.1382
     36 H10         0.4497   -5.3046    6.9946 H         1 <0>         0.1213
@<TRIPOS>BOND
     1    1    2 1
     2    1   27 1
     3    1   28 1
     4    1   29 1
     5    2    7 ar
     6    2    3 ar
     7    3    4 ar
     8    3   30 1
     9    4    5 ar
    10    4   24 1
    11    5    6 ar
    12    5   31 1
    13    6    7 ar
    14    6    9 1
    15    7    8 1
    16    8   32 1
    17    8   33 1
    18    8   34 1
    19    9   10 2
    20    9   11 2
    21    9   12 1
    22   12   13 1
    23   13   18 ar
    24   13   14 ar
    25   14   15 ar
    26   14   35 1
    27   15   16 ar
    28   15   21 1
    29   16   17 ar
    30   16   20 1
    31   17   18 ar
    32   17   36 1
    33   18   19 1
    34   21   22 2
    35   21   23 1
    36   24   25 2
    37   24   26 1
@<TRIPOS>MOLECULE
ZINC63878483
   37    38     0     0     0
SMALL
USER_CHARGES

@<TRIPOS>ATOM
      1 C1         -0.0184    1.5028    0.0103 C.3       1 <0>        -0.0848
      2 C2          0.0021   -0.0041    0.0020 C.ar      1 <0>        -0.1255
      3 C3          0.0057   -0.6863   -1.2004 C.ar      1 <0>        -0.0847
      4 C4          0.0244   -2.0658   -1.2164 C.ar      1 <0>        -0.1832
      5 C5          0.0402   -2.7780   -0.0150 C.ar      1 <0>         0.0019
      6 C6          0.0369   -2.0896    1.1984 C.ar      1 <0>        -0.2169
      7 C7          0.0230   -0.7030    1.2032 C.ar      1 <0>         0.2852
      8 N1          0.0245   -0.0086    2.4155 N.2       1 <0>        -1.0773
      9 S1          0.0494   -0.8413    3.8467 S.o2      1 <0>         2.6228
     10 O1         -1.1856   -1.5390    3.9321 O.2       1 <0>        -1.0415
     11 O2          1.3048   -1.5042    3.9091 O.2       1 <0>        -1.0349
     12 C8          0.0448    0.3514    5.1436 C.ar      1 <0>        -0.7498
     13 C9         -1.0319    0.4269    6.0078 C.ar      1 <0>         0.0240
     14 C10        -1.0389    1.3601    7.0257 C.ar      1 <0>        -0.2114
     15 C11         0.0375    2.2248    7.1820 C.ar      1 <0>         0.3361
     16 C12         1.1181    2.1482    6.3136 C.ar      1 <0>        -0.3139
     17 C13         1.1221    1.2078    5.2989 C.ar      1 <0>         0.2436
     18 F1          2.1749    1.1282    4.4561 F         1 <0>        -0.1334
     19 N2          0.0322    3.1697    8.2106 N.2       1 <0>        -1.0901
     20 S2          1.3158    4.1995    8.3956 S.o2      1 <0>         2.5211
     21 O3          2.4144    3.3561    8.7133 O.2       1 <0>        -1.0262
     22 O4          1.3241    4.9849    7.2114 O.2       1 <0>        -1.0242
     23 C14         0.8848    5.2294    9.8253 C.3       1 <0>        -0.6372
     24 C15         0.0591   -4.2098   -0.0286 C.1       1 <0>         0.2830
     25 N3          0.0741   -5.3456   -0.0395 N.1       1 <0>        -0.4694
     26 H1          1.0042    1.8801    0.0026 H         1 <0>         0.0517
     27 H2         -0.5455    1.8639   -0.8728 H         1 <0>         0.0379
     28 H3         -0.5286    1.8543    0.9071 H         1 <0>         0.0785
     29 H4         -0.0064   -0.1375   -2.1305 H         1 <0>         0.1115
     30 H5          0.0265   -2.5949   -2.1579 H         1 <0>         0.1069
     31 H6          0.0490   -2.6346    2.1307 H         1 <0>         0.1054
     32 H7         -1.8689   -0.2448    5.8864 H         1 <0>         0.1300
     33 H8         -1.8807    1.4181    7.6997 H         1 <0>         0.1200
     34 H9          1.9562    2.8189    6.4326 H         1 <0>         0.1154
     35 H10         0.7469    4.5956   10.7013 H         1 <0>         0.1144
     36 H11         1.6877    5.9418   10.0151 H         1 <0>         0.1000
     37 H12        -0.0390    5.7697    9.6187 H         1 <0>         0.1149
@<TRIPOS>BOND
     1    1    2 1
     2    1   26 1
     3    1   27 1
     4    1   28 1
     5    2    7 ar
     6    2    3 ar
     7    3    4 ar
     8    3   29 1
     9    4    5 ar
    10    4   30 1
    11    5    6 ar
    12    5   24 1
    13    6    7 ar
    14    6   31 1
    15    7    8 1
    16    8    9 1
    17    9   10 2
    18    9   11 2
    19    9   12 1
    20   12   17 ar
    21   12   13 ar
    22   13   14 ar
    23   13   32 1
    24   14   15 ar
    25   14   33 1
    26   15   16 ar
    27   15   19 1
    28   16   17 ar
    29   16   34 1
    30   17   18 1
    31   19   20 1
    32   20   21 2
    33   20   22 2
    34   20   23 1
    35   23   35 1
    36   23   36 1
    37   23   37 1
    38   24   25 3
@<TRIPOS>MOLECULE
ZINC13078763
   40    41     0     0     0
SMALL
USER_CHARGES
3-[4-[[4-(carboxymethyl)phenyl]sulfamoyl]phenyl]propanoic acid
@<TRIPOS>ATOM
      1 C1         -5.6742   -3.1461   -4.5814 C.ar      1 <0>        -0.1398
      2 C2         -6.2160   -2.9781   -3.3209 C.ar      1 <0>        -0.0097
      3 C3         -6.1145   -1.7564   -2.6821 C.ar      1 <0>        -0.6862
      4 C4         -5.4762   -0.7010   -3.3063 C.ar      1 <0>        -0.0179
      5 C5         -4.9306   -0.8703   -4.5651 C.ar      1 <0>        -0.1436
      6 C6         -5.0313   -2.0923   -5.2035 C.ar      1 <0>        -0.0064
      7 C7         -4.4397   -2.2757   -6.5774 C.3       1 <0>        -0.0741
      8 C8         -5.4884   -1.9258   -7.6350 C.3       1 <0>        -0.1501
      9 C9         -4.8969   -2.1092   -9.0089 C.2       1 <0>         0.4610
     10 O1         -3.7538   -2.4816   -9.1297 O.co2     1 <0>        -0.6397
     11 S1         -6.8051   -1.5422   -1.0753 S.o2      1 <0>         2.6936
     12 O2         -7.7437   -2.5935   -0.8932 O.2       1 <0>        -0.9539
     13 O3         -7.1655   -0.1720   -0.9675 O.2       1 <0>        -0.9654
     14 N1         -5.5886   -1.7991    0.0186 N.pl3     1 <0>        -1.0526
     15 C10        -4.9570   -3.0433    0.0813 C.ar      1 <0>         0.1149
     16 C11        -3.5712   -3.1182    0.1404 C.ar      1 <0>        -0.1224
     17 C12        -2.9498   -4.3501    0.2018 C.ar      1 <0>        -0.0995
     18 C13        -3.7056   -5.5081    0.2046 C.ar      1 <0>        -0.0322
     19 C14        -5.0852   -5.4373    0.1402 C.ar      1 <0>        -0.0945
     20 C15        -5.7132   -4.2085    0.0842 C.ar      1 <0>        -0.1453
     21 C16        -3.0241   -6.8505    0.2717 C.3       1 <0>        -0.1326
     22 C17        -2.8552   -7.2566    1.7131 C.2       1 <0>         0.4667
     23 O4         -3.2480   -6.5304    2.5953 O.co2     1 <0>        -0.6306
     24 H1         -5.7529   -4.1008   -5.0802 H         1 <0>         0.1328
     25 H2         -6.7183   -3.8015   -2.8349 H         1 <0>         0.1394
     26 H3         -5.4007    0.2547   -2.8091 H         1 <0>         0.1332
     27 H4         -4.4279   -0.0470   -5.0510 H         1 <0>         0.1307
     28 H5         -3.5760   -1.6207   -6.6915 H         1 <0>         0.0773
     29 H6         -4.1285   -3.3127   -6.7034 H         1 <0>         0.0788
     30 H7         -6.3522   -2.5807   -7.5209 H         1 <0>         0.0666
     31 H8         -5.7996   -0.8888   -7.5089 H         1 <0>         0.0656
     32 H9         -5.3148   -1.0855    0.6159 H         1 <0>         0.4211
     33 H10        -2.9803   -2.2142    0.1387 H         1 <0>         0.1205
     34 H11        -1.8724   -4.4091    0.2482 H         1 <0>         0.1206
     35 H12        -5.6723   -6.3437    0.1377 H         1 <0>         0.1232
     36 H13        -6.7908   -4.1538    0.0384 H         1 <0>         0.1485
     37 H14        -2.0458   -6.7855   -0.2045 H         1 <0>         0.0765
     38 H15        -3.6317   -7.5927   -0.2461 H         1 <0>         0.0773
     39 O5         -5.6399   -1.8588  -10.0984 O.co2     1 <0>        -0.7764
     40 O6         -2.2734   -8.4275    2.0167 O.co2     1 <0>        -0.7756
@<TRIPOS>BOND
     1    1    6 ar
     2    1    2 ar
     3    1   24 1
     4    2    3 ar
     5    2   25 1
     6    3    4 ar
     7    3   11 1
     8    4    5 ar
     9    4   26 1
    10    5    6 ar
    11    5   27 1
    12    6    7 1
    13    7    8 1
    14    7   28 1
    15    7   29 1
    16    8    9 1
    17    8   30 1
    18    8   31 1
    19    9   10 2
    20    9   39 1
    21   11   12 2
    22   11   13 2
    23   11   14 1
    24   14   15 1
    25   14   32 1
    26   15   20 ar
    27   15   16 ar
    28   16   17 ar
    29   16   33 1
    30   17   18 ar
    31   17   34 1
    32   18   19 ar
    33   18   21 1
    34   19   20 ar
    35   19   35 1
    36   20   36 1
    37   21   22 1
    38   21   37 1
    39   21   38 1
    40   22   23 2
    41   22   40 1
@<TRIPOS>MOLECULE
ZINC13644291
   36    37     0     0     0
SMALL
USER_CHARGES

@<TRIPOS>ATOM
      1 C1         -0.0060    1.1227    0.0197 C.3       1 <0>        -0.1080
      2 C2         -0.7365    1.6129   -1.2039 C.2       1 <0>         0.1948
      3 C3         -2.0848    1.8211   -1.1546 C.2       1 <0>        -0.3045
      4 C4         -2.7447    2.2786   -2.3086 C.2       1 <0>         0.5309
      5 N1         -2.0206    2.4964   -3.4272 N.am      1 <0>        -0.6142
      6 C5         -0.6775    2.2712   -3.4174 C.2       1 <0>         0.3590
      7 N2         -0.0653    1.8470   -2.3286 N.2       1 <0>        -0.5502
      8 S1          0.2594    2.5575   -4.8820 S.3       1 <0>         0.0924
      9 C6          1.9577    2.1331   -4.4065 C.3       1 <0>        -0.1402
     10 C7          2.8750    2.3364   -5.5847 C.2       1 <0>         0.5270
     11 O1          2.4271    2.7290   -6.6413 O.2       1 <0>        -0.4874
     12 N3          4.1931    2.0821   -5.4645 N.am      1 <0>        -0.6591
     13 C8          5.0291    2.1773   -6.5829 C.ar      1 <0>         0.1223
     14 C9          4.7910    3.1458   -7.5454 C.ar      1 <0>        -0.0325
     15 C10         5.6279    3.2365   -8.6591 C.ar      1 <0>        -0.1124
     16 C11         6.6997    2.3500   -8.7952 C.ar      1 <0>        -0.0271
     17 C12         6.9270    1.3901   -7.8310 C.ar      1 <0>        -0.0489
     18 C13         6.1010    1.3045   -6.7253 C.ar      1 <0>        -0.0896
     19 N4          8.0628    0.4523   -7.9774 N.pl3     1 <0>         0.0420
     20 O2          8.7893    0.5285   -8.9408 O.2       1 <0>        -0.1585
     21 O3          8.2641   -0.3898   -7.1336 O.3       1 <0>        -0.1766
     22 C14         5.3815    4.2642   -9.6888 C.2       1 <0>         0.5240
     23 O4          4.4428    5.0385   -9.5676 O.co2     1 <0>        -0.6680
     24 O5          6.1161    4.3417  -10.6634 O.co2     1 <0>        -0.6713
     25 O6         -3.9489    2.4747   -2.2995 O.2       1 <0>        -0.5379
     26 H1          0.0093    0.0328    0.0214 H         1 <0>         0.0874
     27 H2          1.0164    1.5004    0.0081 H         1 <0>         0.0829
     28 H3         -0.5154    1.4803    0.9146 H         1 <0>         0.0826
     29 H4         -2.6355    1.6371   -0.2440 H         1 <0>         0.1557
     30 H5          2.2756    2.7737   -3.5838 H         1 <0>         0.1369
     31 H6          1.9970    1.0905   -4.0911 H         1 <0>         0.1366
     32 H7          4.5623    1.8330   -4.6028 H         1 <0>         0.4154
     33 H8          3.9608    3.8276   -7.4344 H         1 <0>         0.1637
     34 H9          7.3496    2.4162   -9.6552 H         1 <0>         0.1609
     35 H10         6.2871    0.5535   -5.9717 H         1 <0>         0.1495
     36 H11        -2.4554    2.8118   -4.2348 H         1 <0>         0.4224
@<TRIPOS>BOND
     1    1   26 1
     2    1   27 1
     3    1   28 1
     4    1    2 1
     5    2    3 2
     6    2    7 1
     7    3    4 1
     8    3   29 1
     9    4    5 am
    10    4   25 2
    11    5    6 1
    12    5   36 1
    13    6    8 1
    14    6    7 2
    15    8    9 1
    16    9   10 1
    17    9   30 1
    18    9   31 1
    19   10   11 2
    20   10   12 am
    21   12   13 1
    22   12   32 1
    23   13   18 ar
    24   13   14 ar
    25   14   15 ar
    26   14   33 1
    27   15   16 ar
    28   15   22 1
    29   16   17 ar
    30   16   34 1
    31   17   18 ar
    32   17   19 1
    33   18   35 1
    34   19   20 2
    35   19   21 1
    36   22   23 2
    37   22   24 1
@<TRIPOS>MOLECULE
ZINC01833557
   38    39     0     0     0
SMALL
USER_CHARGES

@<TRIPOS>ATOM
      1 C1         -0.4233    1.5020   -0.0066 C.3       1 <0>        -0.1384
      2 C2         -0.2885    0.0016   -0.0466 C.ar      1 <0>        -0.0011
      3 C3         -0.4621   -0.6737   -1.2425 C.ar      1 <0>        -0.1360
      4 C4         -0.3404   -2.0461   -1.2874 C.ar      1 <0>        -0.0614
      5 C5         -0.0401   -2.7565   -0.1201 C.ar      1 <0>        -0.0538
      6 C6          0.1343   -2.0667    1.0842 C.ar      1 <0>        -0.0117
      7 C7          0.0139   -0.6933    1.1115 C.ar      1 <0>        -0.6731
      8 S1          0.2391    0.1786    2.6259 S.o2      1 <0>         2.6938
      9 O1          0.4897   -0.8005    3.6249 O.2       1 <0>        -0.9448
     10 O2          1.1457    1.2384    2.3535 O.2       1 <0>        -0.9616
     11 N1         -1.2110    0.8822    3.0061 N.pl3     1 <0>        -1.0514
     12 C8         -2.3001    0.0893    3.3448 C.ar      1 <0>         0.1356
     13 C9         -2.6133   -1.0271    2.5732 C.ar      1 <0>        -0.1726
     14 C10        -3.6834   -1.8091    2.9032 C.ar      1 <0>        -0.0546
     15 C11        -4.4657   -1.4872    4.0184 C.ar      1 <0>        -0.1390
     16 C12        -4.1478   -0.3644    4.7914 C.ar      1 <0>        -0.0681
     17 C13        -3.0728    0.4095    4.4586 C.ar      1 <0>        -0.1455
     18 C14        -5.6196   -2.3268    4.3769 C.2       1 <0>         0.5201
     19 O3         -5.8963   -3.3077    3.6999 O.co2     1 <0>        -0.6827
     20 O4         -6.3023   -2.0441    5.3521 O.co2     1 <0>        -0.6930
     21 C15         0.0911   -4.2211   -0.1590 C.2       1 <0>        -0.1154
     22 C16        -0.0786   -4.8840   -1.3243 C.2       1 <0>        -0.1633
     23 C17         0.0477   -6.2938   -1.3617 C.2       1 <0>         0.5017
     24 O5          0.3107   -6.9126   -0.3378 O.co2     1 <0>        -0.6907
     25 O6         -0.1061   -6.8946   -2.4180 O.co2     1 <0>        -0.7026
     26 H1          0.5618    1.9581   -0.1049 H         1 <0>         0.0919
     27 H2         -1.0598    1.8316   -0.8278 H         1 <0>         0.0797
     28 H3         -0.8695    1.8016    0.9417 H         1 <0>         0.0632
     29 H4         -0.6939   -0.1238   -2.1427 H         1 <0>         0.1292
     30 H5         -0.4769   -2.5715   -2.2211 H         1 <0>         0.1353
     31 H6          0.3662   -2.6080    1.9896 H         1 <0>         0.1476
     32 H7         -1.2998    1.8481    2.9922 H         1 <0>         0.4191
     33 H8         -2.0095   -1.2746    1.7127 H         1 <0>         0.1267
     34 H9         -3.9258   -2.6744    2.3042 H         1 <0>         0.1342
     35 H10        -4.7491   -0.1130    5.6526 H         1 <0>         0.1304
     36 H11        -2.8243    1.2735    5.0571 H         1 <0>         0.1190
     37 H12         0.3229   -4.7667    0.7438 H         1 <0>         0.1341
     38 H13        -0.3105   -4.3384   -2.2271 H         1 <0>         0.0992
@<TRIPOS>BOND
     1    1    2 1
     2    1   26 1
     3    1   27 1
     4    1   28 1
     5    2    7 ar
     6    2    3 ar
     7    3    4 ar
     8    3   29 1
     9    4    5 ar
    10    4   30 1
    11    5    6 ar
    12    5   21 1
    13    6    7 ar
    14    6   31 1
    15    7    8 1
    16    8    9 2
    17    8   10 2
    18    8   11 1
    19   11   12 1
    20   11   32 1
    21   12   17 ar
    22   12   13 ar
    23   13   14 ar
    24   13   33 1
    25   14   15 ar
    26   14   34 1
    27   15   16 ar
    28   15   18 1
    29   16   17 ar
    30   16   35 1
    31   17   36 1
    32   18   19 2
    33   18   20 1
    34   21   22 2
    35   21   37 1
    36   22   23 1
    37   22   38 1
    38   23   24 2
    39   23   25 1
@<TRIPOS>MOLECULE
ZINC40021939
   43    45     0     0     0
SMALL
USER_CHARGES

@<TRIPOS>ATOM
      1 C1         -0.8347   -0.0570    0.9216 C.2       1 <0>        -0.0434
      2 C2         -0.5253   -0.9082    1.9909 C.2       1 <0>        -0.2095
      3 C3          0.6426   -1.5897    1.9991 C.2       1 <0>         0.1202
      4 N1          1.5322   -1.4616    0.9745 N.am      1 <0>        -0.4513
      5 C4          1.2580   -0.6396   -0.0827 C.2       1 <0>         0.4144
      6 C5          0.0490    0.0778   -0.1082 C.2       1 <0>        -0.1443
      7 N2          2.1161   -0.5023   -1.0947 N.2       1 <0>        -0.5711
      8 C6          3.2680   -1.1524   -1.1218 C.2       1 <0>         0.4865
      9 C7          3.6067   -2.0161   -0.0570 C.2       1 <0>        -0.4765
     10 C8          2.6898   -2.1562    1.0130 C.2       1 <0>         0.5363
     11 O1          2.9406   -2.8916    1.9522 O.2       1 <0>        -0.5619
     12 C9          4.8320   -2.7243   -0.0594 C.2       1 <0>         0.2345
     13 C10         6.0112   -2.0471   -0.1713 C.2       1 <0>        -0.2980
     14 C11         7.3364   -2.5517   -0.3092 C.2       1 <0>         0.5458
     15 O2          7.5502   -3.7507   -0.3419 O.2       1 <0>        -0.4929
     16 N3          8.3272   -1.6818   -0.4011 N.am      1 <0>        -0.5209
     17 C12         8.0899   -0.3516   -0.3648 C.2       1 <0>         0.2881
     18 S1          9.2076    0.9413   -0.4651 S.2       1 <0>        -0.4408
     19 S2          6.3130   -0.2854   -0.1927 S.3       1 <0>         0.1140
     20 C13         9.7024   -2.1663   -0.5439 C.3       1 <0>         0.0882
     21 C14        10.0367   -2.3220   -2.0288 C.3       1 <0>        -0.1294
     22 C15        11.4729   -2.8280   -2.1778 C.3       1 <0>        -0.1104
     23 C16        11.8072   -2.9837   -3.6627 C.3       1 <0>        -0.0922
     24 C17        13.2434   -3.4897   -3.8118 C.3       1 <0>        -0.1813
     25 C18        13.5727   -3.6431   -5.2744 C.2       1 <0>         0.4884
     26 O3         12.7362   -3.3728   -6.1192 O.co2     1 <0>        -0.6977
     27 O4         14.6756   -4.0375   -5.6128 O.co2     1 <0>        -0.7149
     28 O5          4.1158   -0.9914   -2.1633 O.3       1 <0>        -0.6073
     29 H1         -1.7687    0.4852    0.9109 H         1 <0>         0.1401
     30 H2         -1.2205   -1.0198    2.8099 H         1 <0>         0.1457
     31 H3          0.8733   -2.2430    2.8275 H         1 <0>         0.1704
     32 H4         -0.1785    0.7306   -0.9380 H         1 <0>         0.1570
     33 H5          4.8337   -3.8008    0.0273 H         1 <0>         0.1307
     34 H6         10.3885   -1.4511   -0.0900 H         1 <0>         0.1054
     35 H7          9.8013   -3.1309   -0.0460 H         1 <0>         0.0966
     36 H8          9.3506   -3.0372   -2.4826 H         1 <0>         0.0663
     37 H9          9.9378   -1.3574   -2.5266 H         1 <0>         0.0726
     38 H10        12.1590   -2.1128   -1.7240 H         1 <0>         0.0605
     39 H11        11.5718   -3.7926   -1.6800 H         1 <0>         0.0566
     40 H12        11.1211   -3.6989   -4.1166 H         1 <0>         0.0576
     41 H13        11.7083   -2.0191   -4.1605 H         1 <0>         0.0597
     42 H14        13.9295   -2.7745   -3.3580 H         1 <0>         0.0548
     43 H15        13.3423   -4.4543   -3.3140 H         1 <0>         0.0536
@<TRIPOS>BOND
     1    1    6 2
     2    1    2 1
     3    1   29 1
     4    2    3 2
     5    2   30 1
     6    3    4 1
     7    3   31 1
     8    4   10 am
     9    4    5 1
    10    5    6 1
    11    5    7 2
    12    6   32 1
    13    7    8 1
    14    8    9 2
    15    8   28 1
    16    9   10 1
    17    9   12 1
    18   10   11 2
    19   12   13 2
    20   12   33 1
    21   13   19 1
    22   13   14 1
    23   14   15 2
    24   14   16 am
    25   16   17 1
    26   16   20 1
    27   17   18 2
    28   17   19 1
    29   20   21 1
    30   20   34 1
    31   20   35 1
    32   21   22 1
    33   21   36 1
    34   21   37 1
    35   22   23 1
    36   22   38 1
    37   22   39 1
    38   23   24 1
    39   23   40 1
    40   23   41 1
    41   24   25 1
    42   24   42 1
    43   24   43 1
    44   25   26 2
    45   25   27 1
