@<TRIPOS>MOLECULE
1C8K-CPB
 49 52 0 0 0
SMALL
SF_CHARGES


@<TRIPOS>ATOM
1    C        43.6080   40.0770   27.8640  C.3        1 SUBUNIT      0.1405
2    N        42.6230   39.6510   28.8790  N.4        1 SUBUNIT     -0.3201
3    C        41.2240   39.6490   28.3510  C.3        1 SUBUNIT      0.1683
4    C        40.1800   39.2250   29.4250  C.3        1 SUBUNIT     -0.0571
5    C        40.6120   37.8860   30.0840  C.3        1 SUBUNIT      0.0076
6    C        42.0980   37.9350   30.6030  C.3        1 SUBUNIT      0.2395
7    C        43.0260   38.3180   29.4190  C.3        1 SUBUNIT      0.1439
8    C        39.5350   37.5130   31.1380  C.2        1 SUBUNIT     -0.0515
9    C        38.6990   36.4150   30.8150  C.2        1 SUBUNIT      0.1562
10   O        38.8860   35.7310   29.5890  O.3        1 SUBUNIT     -0.3507
11   C        38.1580   34.6600   29.1780  C.2        1 SUBUNIT      0.2097
12   C        37.1540   34.1700   29.9490  C.2        1 SUBUNIT     -0.1134
13   C        36.8480   34.7840   31.2610  C.2        1 SUBUNIT      0.5213
14   O        35.9610   34.3380   31.9540  O.2        1 SUBUNIT     -0.5256
15   C        37.6840   35.9780   31.7160  C.2        1 SUBUNIT     -0.0497
16   C        37.4860   36.6450   32.9650  C.2        1 SUBUNIT      0.1611
17   O        36.5010   36.2430   33.8840  O.3        1 SUBUNIT     -0.4997
18   C        38.3120   37.7460   33.2850  C.2        1 SUBUNIT     -0.1207
19   C        39.3360   38.1830   32.3920  C.2        1 SUBUNIT      0.1626
20   O        40.1330   39.2620   32.7390  O.3        1 SUBUNIT     -0.4997
21   C        38.4970   34.0180   27.8170  C.2        1 SUBUNIT     -0.0235
22   C        38.9230   34.8060   26.6740  C.2        1 SUBUNIT      0.0201
23   Cl       39.0800   36.5310   26.7370  Cl         1 SUBUNIT     -0.0854
24   C        39.2310   34.1870   25.4410  C.2        1 SUBUNIT     -0.0989
25   C        39.1330   32.7750   25.2970  C.2        1 SUBUNIT     -0.0928
26   C        38.7090   31.9770   26.4170  C.2        1 SUBUNIT     -0.0934
27   C        38.4000   32.5920   27.6640  C.2        1 SUBUNIT     -0.0990
28   O        42.3800   38.9180   31.6090  O.3        1 SUBUNIT     -0.5518
29   H        43.5914   39.4090   26.9965  H          1 SUBUNIT      0.0481
30   H        44.6230   40.0699   28.2749  H          1 SUBUNIT      0.0481
31   H        43.3946   41.0916   27.5117  H          1 SUBUNIT      0.0481
32   H        42.6274   40.3255   29.6280  H          1 SUBUNIT      0.3239
33   H        40.9902   40.6598   28.0007  H          1 SUBUNIT      0.0441
34   H        41.1783   38.9506   27.5088  H          1 SUBUNIT      0.0441
35   H        40.1134   40.0022   30.1935  H          1 SUBUNIT      0.0568
36   H        39.2019   39.0960   28.9498  H          1 SUBUNIT      0.0568
37   H        40.6370   37.0717   29.3524  H          1 SUBUNIT      0.0506
38   H        42.2838   36.9662   31.0783  H          1 SUBUNIT      0.0350
39   H        42.9421   37.5712   28.6226  H          1 SUBUNIT      0.0419
40   H        44.0646   38.3719   29.7615  H          1 SUBUNIT      0.0419
41   H        36.6034   33.3292   29.5647  H          1 SUBUNIT      0.0987
42   H        36.1490   37.0210   34.3227  H          1 SUBUNIT      0.3905
43   H        38.1624   38.2599   34.2184  H          1 SUBUNIT      0.1160
44   H        40.9726   38.9347   33.0699  H          1 SUBUNIT      0.3909
45   H        39.5417   34.7914   24.6068  H          1 SUBUNIT      0.1165
46   H        39.3753   32.3131   24.3559  H          1 SUBUNIT      0.1170
47   H        38.6232   30.9091   26.3172  H          1 SUBUNIT      0.1176
48   H        38.0923   31.9808   28.4944  H          1 SUBUNIT      0.1183
49   H        42.3886   38.4900   32.4683  H          1 SUBUNIT      0.3974
@<TRIPOS>BOND
     1    1    2 1
     2    2    3 1
     3    2    7 1
     4    3    4 1
     5    4    5 1
     6    5    6 1
     7    5    8 1
     8    6    7 1
     9    6   28 1
    10    8    9 2
    11    8   19 1
    12    9   10 1
    13    9   15 1
    14   10   11 1
    15   11   12 2
    16   11   21 1
    17   12   13 1
    18   13   14 2
    19   13   15 1
    20   15   16 2
    21   16   17 1
    22   16   18 1
    23   18   19 2
    24   19   20 1
    25   21   22 2
    26   21   27 1
    27   22   23 1
    28   22   24 1
    29   24   25 2
    30   25   26 1
    31   26   27 2
    32    1   29 1
    33    1   30 1
    34    1   31 1
    35    2   32 1
    36    3   33 1
    37    3   34 1
    38    4   35 1
    39    4   36 1
    40    5   37 1
    41    6   38 1
    42    7   39 1
    43    7   40 1
    44   12   41 1
    45   17   42 1
    46   18   43 1
    47   20   44 1
    48   24   45 1
    49   25   46 1
    50   26   47 1
    51   27   48 1
    52   28   49 1
