@<TRIPOS>MOLECULE
CHEMBL571023
   60    65     0     0     0
SMALL
USER_CHARGES

@<TRIPOS>ATOM
      1 C1         -0.6703    1.4334    0.1233 C.ar      1 <0>        -0.0739
      2 C2          0.5458    2.0868    0.0999 C.ar      1 <0>        -0.1452
      3 C3          1.7315    1.3539    0.0991 C.ar      1 <0>        -0.0166
      4 C4          1.6854   -0.0381    0.1220 C.ar      1 <0>        -0.1498
      5 C5          0.4599   -0.6867    0.1455 C.ar      1 <0>         0.2125
      6 C6         -0.7173    0.0527    0.1461 C.ar      1 <0>        -0.1789
      7 N1          0.4084   -2.0825    0.1681 N.pl3     1 <0>        -0.6327
      8 C7          1.6346   -2.8877    0.0526 C.3       1 <0>         0.0849
      9 C8          1.6497   -3.9119    1.1932 C.3       1 <0>         0.0458
     10 O1          0.4149   -4.6323    1.1952 O.3       1 <0>        -0.3786
     11 C9         -0.7363   -3.8199    1.4367 C.3       1 <0>         0.0454
     12 C10        -0.8731   -2.7910    0.3143 C.3       1 <0>         0.0863
     13 C11         3.0387    2.0542    0.0734 C.ar      1 <0>         0.2630
     14 C12         3.0987    3.4478    0.1606 C.ar      1 <0>        -0.2651
     15 C13         4.3406    4.0569    0.1331 C.ar      1 <0>         0.1921
     16 N2          5.4268    3.3082    0.0258 N.ar      1 <0>        -0.5583
     17 C14         5.3402    1.9883   -0.0552 C.ar      1 <0>         0.5613
     18 N3          4.1726    1.3650   -0.0275 N.ar      1 <0>        -0.5560
     19 N4          6.5014    1.2414   -0.1669 N.pl3     1 <0>        -0.6384
     20 C15         7.7483    1.8688   -0.0737 C.ar      1 <0>         0.1718
     21 C16         7.9202    2.9488    0.7830 C.ar      1 <0>        -0.0914
     22 C17         9.1505    3.5676    0.8748 C.ar      1 <0>        -0.0856
     23 C18        10.2163    3.1110    0.1105 C.ar      1 <0>         0.1245
     24 C19        10.0446    2.0317   -0.7462 C.ar      1 <0>        -0.1066
     25 C20         8.8163    1.4083   -0.8335 C.ar      1 <0>        -0.1231
     26 N5         11.4660    3.7402    0.2036 N.pl3     1 <0>        -0.3206
     27 C21        12.5850    3.4159   -0.4744 C.2       1 <0>         0.2653
     28 N6         13.5360    4.2356   -0.1111 N.2       1 <0>        -0.5256
     29 C22        13.0668    5.1005    0.7983 C.2       1 <0>         0.2723
     30 N7         11.7967    4.8362    1.0172 N.2       1 <0>        -0.2968
     31 C23        13.8488    6.1820    1.4466 C.ar      1 <0>        -0.0691
     32 C24        15.1948    6.3766    1.1239 C.ar      1 <0>        -0.0318
     33 C25        15.8803    7.3992    1.7565 C.ar      1 <0>        -0.1755
     34 C26        15.2177    8.1884    2.6791 C.ar      1 <0>         0.1129
     35 N8         13.9468    7.9804    2.9635 N.ar      1 <0>        -0.4842
     36 C27        13.2519    7.0237    2.3825 C.ar      1 <0>         0.1378
     37 H1         -1.5876    2.0034    0.1284 H         1 <0>         0.1295
     38 H2          0.5785    3.1662    0.0818 H         1 <0>         0.1274
     39 H3          2.6013   -0.6104    0.1212 H         1 <0>         0.1357
     40 H4         -1.6711   -0.4535    0.1647 H         1 <0>         0.1259
     41 H5          1.6445   -3.4060   -0.9063 H         1 <0>         0.0722
     42 H6          2.5078   -2.2399    0.1294 H         1 <0>         0.0943
     43 H7          2.4766   -4.6070    1.0474 H         1 <0>         0.1057
     44 H8          1.7712   -3.3949    2.1451 H         1 <0>         0.0559
     45 H9         -1.6261   -4.4488    1.4662 H         1 <0>         0.1064
     46 H10        -0.6235   -3.3026    2.3895 H         1 <0>         0.0556
     47 H11        -1.6597   -2.0790    0.5643 H         1 <0>         0.0930
     48 H12        -1.1199   -3.2993   -0.6178 H         1 <0>         0.0719
     49 H13         2.1968    4.0354    0.2472 H         1 <0>         0.1513
     50 H14         4.4228    5.1318    0.1981 H         1 <0>         0.1743
     51 H15         6.4500    0.2834   -0.3098 H         1 <0>         0.4253
     52 H16         7.0912    3.3044    1.3768 H         1 <0>         0.1435
     53 H17         9.2842    4.4073    1.5407 H         1 <0>         0.1417
     54 H18        10.8735    1.6770   -1.3407 H         1 <0>         0.1371
     55 H19         8.6841    0.5657   -1.4959 H         1 <0>         0.1392
     56 H20        12.6795    2.6162   -1.1941 H         1 <0>         0.2260
     57 H21        15.6875    5.7448    0.3996 H         1 <0>         0.1476
     58 H22        16.9215    7.5786    1.5324 H         1 <0>         0.1434
     59 H23        15.7495    8.9872    3.1746 H         1 <0>         0.1616
     60 H24        12.2114    6.8874    2.6379 H         1 <0>         0.1632
@<TRIPOS>BOND
     1    1    6 ar
     2    1    2 ar
     3    1   37 1
     4    2    3 ar
     5    2   38 1
     6    3    4 ar
     7    3   13 1
     8    4    5 ar
     9    4   39 1
    10    5    6 ar
    11    5    7 1
    12    6   40 1
    13    7   12 1
    14    7    8 1
    15    8    9 1
    16    8   41 1
    17    8   42 1
    18    9   10 1
    19    9   43 1
    20    9   44 1
    21   10   11 1
    22   11   12 1
    23   11   45 1
    24   11   46 1
    25   12   47 1
    26   12   48 1
    27   13   18 ar
    28   13   14 ar
    29   14   15 ar
    30   14   49 1
    31   15   16 ar
    32   15   50 1
    33   16   17 ar
    34   17   18 ar
    35   17   19 1
    36   19   20 1
    37   19   51 1
    38   20   25 ar
    39   20   21 ar
    40   21   22 ar
    41   21   52 1
    42   22   23 ar
    43   22   53 1
    44   23   24 ar
    45   23   26 1
    46   24   25 ar
    47   24   54 1
    48   25   55 1
    49   26   30 1
    50   26   27 1
    51   27   28 2
    52   27   56 1
    53   28   29 1
    54   29   30 2
    55   29   31 1
    56   31   36 ar
    57   31   32 ar
    58   32   33 ar
    59   32   57 1
    60   33   34 ar
    61   33   58 1
    62   34   35 ar
    63   34   59 1
    64   35   36 ar
    65   36   60 1
@<TRIPOS>MOLECULE
CHEMBL219112
   44    46     0     0     0
SMALL
USER_CHARGES

@<TRIPOS>ATOM
      1 C1         -0.0225    1.8097    0.0120 C.3       1 <0>        -0.6498
      2 S1          0.0021   -0.0041    0.0020 S.o2      1 <0>         2.4984
      3 O1          0.8352   -0.4880    1.0465 O.2       1 <0>        -0.9356
      4 O2         -1.3147   -0.5105   -0.1678 O.2       1 <0>        -0.9357
      5 C2          0.8454   -0.4373   -1.4831 C.ar      1 <0>        -0.6518
      6 C3          0.1346   -0.6126   -2.6557 C.ar      1 <0>        -0.0246
      7 C4          0.7962   -0.9525   -3.8208 C.ar      1 <0>        -0.1185
      8 C5          2.1688   -1.1167   -3.8136 C.ar      1 <0>        -0.0560
      9 C6          2.8797   -0.9405   -2.6412 C.ar      1 <0>        -0.1182
     10 C7          2.2186   -0.5964   -1.4770 C.ar      1 <0>        -0.0243
     11 C8          2.8899   -1.4882   -5.0836 C.3       1 <0>         0.1517
     12 N1          3.2853   -0.2700   -5.7949 N.am      1 <0>        -0.7052
     13 C9          3.9482   -0.3580   -6.9650 C.2       1 <0>         0.5739
     14 O3          4.2180   -1.4477   -7.4300 O.2       1 <0>        -0.5214
     15 C10         4.3484    0.8749   -7.6849 C.ar      1 <0>         0.1511
     16 C11         5.0265    0.7702   -8.8935 C.ar      1 <0>        -0.1925
     17 C12         5.4017    1.9311   -9.5695 C.ar      1 <0>         0.3041
     18 C13         5.0747    3.1725   -8.9940 C.ar      1 <0>        -0.1450
     19 C14         4.3854    3.1911   -7.7650 C.ar      1 <0>         0.2885
     20 N2          4.0478    2.0597   -7.1665 N.ar      1 <0>        -0.4941
     21 C15         4.0314    4.4852   -7.1416 C.2       1 <0>        -0.1094
     22 C16         2.8445    4.6339   -6.4216 C.2       1 <0>        -0.1139
     23 C17         2.6136    5.8558   -5.8916 C.2       1 <0>        -0.2099
     24 S2          4.0522    6.7727   -6.4055 S.3       1 <0>         0.1967
     25 C18         4.8580    5.5644   -7.2494 C.2       1 <0>        -0.2243
     26 C19         5.4364    4.3955   -9.6452 C.1       1 <0>         0.2595
     27 N3          5.7232    5.3656  -10.1619 N.1       1 <0>        -0.4065
     28 N4          6.0796    1.8634  -10.7769 N.pl3     1 <0>        -0.8423
     29 H1          1.0001    2.1870    0.0043 H         1 <0>         0.1321
     30 H2         -0.5497    2.1708   -0.8711 H         1 <0>         0.1320
     31 H3         -0.5327    2.1613    0.9088 H         1 <0>         0.1342
     32 H4         -0.9378   -0.4844   -2.6614 H         1 <0>         0.1453
     33 H5          0.2407   -1.0902   -4.7367 H         1 <0>         0.1367
     34 H6          3.9520   -1.0690   -2.6355 H         1 <0>         0.1367
     35 H7          2.7745   -0.4551   -0.5619 H         1 <0>         0.1454
     36 H8          3.7781   -2.0711   -4.8398 H         1 <0>         0.0871
     37 H9          2.2292   -2.0804   -5.7167 H         1 <0>         0.0873
     38 H10         3.0699    0.5999   -5.4237 H         1 <0>         0.4154
     39 H11         5.2610   -0.2004   -9.3050 H         1 <0>         0.1596
     40 H12         2.1487    3.8176   -6.2954 H         1 <0>         0.1484
     41 H13         1.7708    6.1912   -5.3055 H         1 <0>         0.1904
     42 H14         5.8076    5.6280   -7.7599 H         1 <0>         0.1822
     43 H15         6.2990    1.0007  -11.1622 H         1 <0>         0.4145
     44 H16         6.3345    2.6788  -11.2363 H         1 <0>         0.4077
@<TRIPOS>BOND
     1    1    2 1
     2    1   29 1
     3    1   30 1
     4    1   31 1
     5    2    3 2
     6    2    4 2
     7    2    5 1
     8    5   10 ar
     9    5    6 ar
    10    6    7 ar
    11    6   32 1
    12    7    8 ar
    13    7   33 1
    14    8    9 ar
    15    8   11 1
    16    9   10 ar
    17    9   34 1
    18   10   35 1
    19   11   12 1
    20   11   36 1
    21   11   37 1
    22   12   13 am
    23   12   38 1
    24   13   14 2
    25   13   15 1
    26   15   20 ar
    27   15   16 ar
    28   16   17 ar
    29   16   39 1
    30   17   18 ar
    31   17   28 1
    32   18   19 ar
    33   18   26 1
    34   19   20 ar
    35   19   21 1
    36   21   25 2
    37   21   22 1
    38   22   23 2
    39   22   40 1
    40   23   24 1
    41   23   41 1
    42   24   25 1
    43   25   42 1
    44   26   27 3
    45   28   43 1
    46   28   44 1
@<TRIPOS>MOLECULE
CHEMBL383348
   67    71     0     0     0
SMALL
USER_CHARGES

@<TRIPOS>ATOM
      1 C1         -0.0187    1.5258    0.0104 C.3       1 <0>        -0.1508
      2 C2          0.0021   -0.0041    0.0020 C.3       1 <0>        -0.1380
      3 C3         -1.4333   -0.5336    0.0129 C.3       1 <0>         0.1309
      4 N1         -1.4134   -1.9985    0.0048 N.pl3     1 <0>        -0.6860
      5 C4         -2.6026   -2.7068    0.0124 C.ar      1 <0>         0.5821
      6 N2         -3.7496   -2.0424    0.0215 N.ar      1 <0>        -0.5464
      7 C5         -4.9097   -2.6817    0.0289 C.ar      1 <0>         0.2170
      8 C6         -4.9210   -4.0634    0.0271 C.ar      1 <0>        -0.2807
      9 C7         -3.6940   -4.7404    0.0174 C.ar      1 <0>         0.2601
     10 N3         -2.5648   -4.0293    0.0049 N.ar      1 <0>        -0.5446
     11 C8         -3.6515   -6.2137    0.0156 C.2       1 <0>         0.1156
     12 C9         -2.6267   -7.0149   -0.4545 C.2       1 <0>         0.1474
     13 N4         -2.9967   -8.2917   -0.2637 N.pl3     1 <0>        -0.4613
     14 C10        -4.1815   -8.3297    0.2945 C.cat     1 <0>         0.3022
     15 N5         -4.6242   -7.0725    0.4884 N.pl3     1 <0>        -0.4048
     16 C11        -5.9543   -7.0665    1.1153 C.3       1 <0>         0.1196
     17 H1         -6.7225   -6.8678    0.3680 H         1 <0>         0.1441
     18 C12        -6.1380   -8.4804    1.7071 C.3       1 <0>        -0.1165
     19 C13        -5.2128   -9.3227    0.7963 C.3       1 <0>        -0.0650
     20 C14        -6.0117   -6.0147    2.2249 C.3       1 <0>         0.0401
     21 O1         -7.3413   -5.9415    2.7435 O.3       1 <0>        -0.3691
     22 C15        -7.5046   -4.9835    3.7912 C.3       1 <0>         0.1147
     23 C16        -8.9367   -4.9912    4.2601 C.ar      1 <0>        -0.1433
     24 C17        -9.8637   -4.1585    3.6607 C.ar      1 <0>        -0.0544
     25 C18       -11.1770   -4.1634    4.0891 C.ar      1 <0>        -0.1547
     26 C19       -11.5657   -5.0049    5.1213 C.ar      1 <0>         0.1443
     27 C20       -10.6338   -5.8397    5.7207 C.ar      1 <0>        -0.2119
     28 C21        -9.3228   -5.8349    5.2852 C.ar      1 <0>        -0.0538
     29 O2        -12.8570   -5.0112    5.5447 O.3       1 <0>        -0.3141
     30 C22       -13.1855   -5.9031    6.6118 C.3       1 <0>         0.0246
     31 C23        -1.3556   -6.5503   -1.0572 C.ar      1 <0>        -0.0721
     32 C24        -1.3637   -5.5273   -2.0051 C.ar      1 <0>        -0.0160
     33 C25        -0.1775   -5.0982   -2.5635 C.ar      1 <0>        -0.1526
     34 C26         1.0206   -5.6820   -2.1843 C.ar      1 <0>         0.1417
     35 C27         1.0337   -6.6990   -1.2432 C.ar      1 <0>        -0.1515
     36 C28        -0.1466   -7.1305   -0.6743 C.ar      1 <0>        -0.0568
     37 F1          2.1797   -5.2587   -2.7343 F         1 <0>        -0.1237
     38 H2          1.0039    1.9031    0.0027 H         1 <0>         0.0647
     39 H3         -0.5459    1.8868   -0.8726 H         1 <0>         0.0603
     40 H4         -0.5289    1.8773    0.9072 H         1 <0>         0.0600
     41 H5          0.5123   -0.3556   -0.8948 H         1 <0>         0.0704
     42 H6          0.5293   -0.3651    0.8851 H         1 <0>         0.0701
     43 H7         -1.9435   -0.1821    0.9097 H         1 <0>         0.0735
     44 H8         -1.9605   -0.1726   -0.8702 H         1 <0>         0.0743
     45 H9         -0.5669   -2.4720   -0.0058 H         1 <0>         0.4168
     46 H10        -5.8373   -2.1286    0.0366 H         1 <0>         0.1814
     47 H11        -5.8532   -4.6086    0.0334 H         1 <0>         0.1464
     48 H12        -5.8085   -8.5145    2.7455 H         1 <0>         0.1106
     49 H13        -7.1731   -8.8097    1.6168 H         1 <0>         0.1369
     50 H14        -5.7695   -9.7488   -0.0384 H         1 <0>         0.1404
     51 H15        -4.7327  -10.1102    1.3772 H         1 <0>         0.1343
     52 H16        -5.3247   -6.2921    3.0244 H         1 <0>         0.0678
     53 H17        -5.7255   -5.0438    1.8205 H         1 <0>         0.0748
     54 H18        -6.8485   -5.2395    4.6231 H         1 <0>         0.0628
     55 H19        -7.2494   -3.9912    3.4192 H         1 <0>         0.0638
     56 H20        -9.5606   -3.5036    2.8573 H         1 <0>         0.1305
     57 H21       -11.9005   -3.5123    3.6210 H         1 <0>         0.1359
     58 H22       -10.9339   -6.4957    6.5245 H         1 <0>         0.1326
     59 H23        -8.5979   -6.4878    5.7486 H         1 <0>         0.1254
     60 H24       -12.5904   -5.6535    7.4902 H         1 <0>         0.0585
     61 H25       -14.2446   -5.8083    6.8515 H         1 <0>         0.1053
     62 H26       -12.9721   -6.9278    6.3075 H         1 <0>         0.0580
     63 H27        -2.2970   -5.0721   -2.3018 H         1 <0>         0.1303
     64 H28        -0.1827   -4.3061   -3.2977 H         1 <0>         0.1475
     65 H29         1.9699   -7.1513   -0.9512 H         1 <0>         0.1504
     66 H30        -0.1349   -7.9199    0.0627 H         1 <0>         0.1366
     67 H31        -2.4671   -9.0683   -0.5032 H         1 <0>         0.4632
@<TRIPOS>BOND
     1    1    2 1
     2    1   38 1
     3    1   39 1
     4    1   40 1
     5    2    3 1
     6    2   41 1
     7    2   42 1
     8    3    4 1
     9    3   43 1
    10    3   44 1
    11    4    5 1
    12    4   45 1
    13    5   10 ar
    14    5    6 ar
    15    6    7 ar
    16    7    8 ar
    17    7   46 1
    18    8    9 ar
    19    8   47 1
    20    9   10 ar
    21    9   11 1
    22   11   15 1
    23   11   12 2
    24   12   13 1
    25   12   31 1
    26   13   14 2
    27   13   67 1
    28   14   19 1
    29   14   15 1
    30   15   16 1
    31   16   17 1
    32   16   18 1
    33   16   20 1
    34   18   19 1
    35   18   48 1
    36   18   49 1
    37   19   50 1
    38   19   51 1
    39   20   21 1
    40   20   52 1
    41   20   53 1
    42   21   22 1
    43   22   23 1
    44   22   54 1
    45   22   55 1
    46   23   28 ar
    47   23   24 ar
    48   24   25 ar
    49   24   56 1
    50   25   26 ar
    51   25   57 1
    52   26   27 ar
    53   26   29 1
    54   27   28 ar
    55   27   58 1
    56   28   59 1
    57   29   30 1
    58   30   60 1
    59   30   61 1
    60   30   62 1
    61   31   36 ar
    62   31   32 ar
    63   32   33 ar
    64   32   63 1
    65   33   34 ar
    66   33   64 1
    67   34   35 ar
    68   34   37 1
    69   35   36 ar
    70   35   65 1
    71   36   66 1
@<TRIPOS>MOLECULE
CHEMBL383348__1
   66    70     0     0     0
SMALL
USER_CHARGES

@<TRIPOS>ATOM
      1 C1         -0.0187    1.5258    0.0104 C.3       1 <0>        -0.1485
      2 C2          0.0021   -0.0041    0.0020 C.3       1 <0>        -0.1385
      3 C3          0.7182   -0.4975   -1.2568 C.3       1 <0>         0.1369
      4 N1          0.7381   -1.9623   -1.2648 N.pl3     1 <0>        -0.6956
      5 C4          1.3368   -2.6406   -2.3124 C.ar      1 <0>         0.5743
      6 N2          1.8918   -1.9476   -3.2967 N.ar      1 <0>        -0.5683
      7 C5          2.4750   -2.5577   -4.3177 C.ar      1 <0>         0.2024
      8 C6          2.5037   -3.9386   -4.3542 C.ar      1 <0>        -0.2957
      9 C7          1.9095   -4.6462   -3.3005 C.ar      1 <0>         0.2974
     10 N3          1.3450   -3.9636   -2.3023 N.ar      1 <0>        -0.5502
     11 C8          1.9128   -6.1201   -3.2923 C.2       1 <0>         0.0217
     12 C9          1.8203   -6.9450   -2.1860 C.2       1 <0>         0.1200
     13 N4          1.8599   -8.2129   -2.6272 N.2       1 <0>        -0.4676
     14 C10         1.9691   -8.2231   -3.9328 C.2       1 <0>         0.2250
     15 N5          2.0028   -6.9558   -4.3880 N.pl3     1 <0>        -0.4572
     16 C11         2.1245   -6.9186   -5.8529 C.3       1 <0>         0.1337
     17 H1          3.1525   -6.6980   -6.1404 H         1 <0>         0.1122
     18 C12         1.7258   -8.3296   -6.3361 C.3       1 <0>        -0.1172
     19 C13         2.0654   -9.1916   -5.0965 C.3       1 <0>        -0.0462
     20 C14         1.1758   -5.8696   -6.4364 C.3       1 <0>         0.0446
     21 O1          1.3899   -5.7649   -7.8453 O.3       1 <0>        -0.3729
     22 C15         0.5493   -4.8067   -8.4914 C.3       1 <0>         0.1114
     23 C16         0.8590   -4.7801   -9.9660 C.ar      1 <0>        -0.1328
     24 C17         1.8283   -3.9224  -10.4522 C.ar      1 <0>        -0.0559
     25 C18         2.1138   -3.8957  -11.8036 C.ar      1 <0>        -0.1547
     26 C19         1.4272   -4.7308  -12.6730 C.ar      1 <0>         0.1370
     27 C20         0.4553   -5.5909  -12.1825 C.ar      1 <0>        -0.2114
     28 C21         0.1773   -5.6174  -10.8296 C.ar      1 <0>        -0.0553
     29 O2          1.7058   -4.7061  -14.0029 O.3       1 <0>        -0.3164
     30 C22         0.9598   -5.5933  -14.8386 C.3       1 <0>         0.0257
     31 C23         1.6998   -6.5104   -0.7748 C.ar      1 <0>        -0.0121
     32 C24         2.3508   -5.3560   -0.3404 C.ar      1 <0>        -0.0333
     33 C25         2.2357   -4.9554    0.9746 C.ar      1 <0>        -0.1607
     34 C26         1.4751   -5.6981    1.8634 C.ar      1 <0>         0.1045
     35 C27         0.8268   -6.8460    1.4367 C.ar      1 <0>        -0.1597
     36 C28         0.9304   -7.2511    0.1221 C.ar      1 <0>        -0.0571
     37 F1          1.3656   -5.3019    3.1504 F         1 <0>        -0.1407
     38 H2          1.0039    1.9031    0.0027 H         1 <0>         0.0585
     39 H3         -0.5459    1.8868   -0.8726 H         1 <0>         0.0580
     40 H4         -0.5289    1.8773    0.9072 H         1 <0>         0.0613
     41 H5          0.5293   -0.3651    0.8851 H         1 <0>         0.0699
     42 H6         -1.0205   -0.3814    0.0098 H         1 <0>         0.0689
     43 H7          0.1910   -0.1364   -2.1398 H         1 <0>         0.0673
     44 H8          1.7408   -0.1202   -1.2645 H         1 <0>         0.0684
     45 H9          0.3316   -2.4569   -0.5361 H         1 <0>         0.4148
     46 H10         2.9233   -1.9815   -5.1136 H         1 <0>         0.1696
     47 H11         2.9727   -4.4603   -5.1754 H         1 <0>         0.1395
     48 H12         0.6623   -8.3755   -6.5707 H         1 <0>         0.0920
     49 H13         2.3264   -8.6324   -7.1938 H         1 <0>         0.1107
     50 H14         3.0730   -9.6007   -5.1698 H         1 <0>         0.1056
     51 H15         1.3346   -9.9929   -4.9871 H         1 <0>         0.1050
     52 H16         0.1444   -6.1669   -6.2467 H         1 <0>         0.0596
     53 H17         1.3679   -4.9048   -5.9670 H         1 <0>         0.0689
     54 H18        -0.4951   -5.0820   -8.3444 H         1 <0>         0.0590
     55 H19         0.7284   -3.8199   -8.0646 H         1 <0>         0.0600
     56 H20         2.3625   -3.2724   -9.7750 H         1 <0>         0.1308
     57 H21         2.8705   -3.2250  -12.1830 H         1 <0>         0.1338
     58 H22        -0.0805   -6.2419  -12.8573 H         1 <0>         0.1307
     59 H23        -0.5761   -6.2899  -10.4467 H         1 <0>         0.1260
     60 H24         1.1326   -6.6219  -14.5222 H         1 <0>         0.0571
     61 H25        -0.1023   -5.3617  -14.7575 H         1 <0>         0.0568
     62 H26         1.2800   -5.4728  -15.8735 H         1 <0>         0.1024
     63 H27         2.9444   -4.7769   -1.0323 H         1 <0>         0.1216
     64 H28         2.7394   -4.0616    1.3119 H         1 <0>         0.1321
     65 H29         0.2354   -7.4217    2.1332 H         1 <0>         0.1367
     66 H30         0.4209   -8.1432   -0.2108 H         1 <0>         0.1362
@<TRIPOS>BOND
     1    1    2 1
     2    1   38 1
     3    1   39 1
     4    1   40 1
     5    2    3 1
     6    2   41 1
     7    2   42 1
     8    3    4 1
     9    3   43 1
    10    3   44 1
    11    4    5 1
    12    4   45 1
    13    5   10 ar
    14    5    6 ar
    15    6    7 ar
    16    7    8 ar
    17    7   46 1
    18    8    9 ar
    19    8   47 1
    20    9   10 ar
    21    9   11 1
    22   11   15 1
    23   11   12 2
    24   12   13 1
    25   12   31 1
    26   13   14 2
    27   14   19 1
    28   14   15 1
    29   15   16 1
    30   16   17 1
    31   16   18 1
    32   16   20 1
    33   18   19 1
    34   18   48 1
    35   18   49 1
    36   19   50 1
    37   19   51 1
    38   20   21 1
    39   20   52 1
    40   20   53 1
    41   21   22 1
    42   22   23 1
    43   22   54 1
    44   22   55 1
    45   23   28 ar
    46   23   24 ar
    47   24   25 ar
    48   24   56 1
    49   25   26 ar
    50   25   57 1
    51   26   27 ar
    52   26   29 1
    53   27   28 ar
    54   27   58 1
    55   28   59 1
    56   29   30 1
    57   30   60 1
    58   30   61 1
    59   30   62 1
    60   31   36 ar
    61   31   32 ar
    62   32   33 ar
    63   32   63 1
    64   33   34 ar
    65   33   64 1
    66   34   35 ar
    67   34   37 1
    68   35   36 ar
    69   35   65 1
    70   36   66 1
@<TRIPOS>MOLECULE
CHEMBL189852
   40    43     0     0     0
SMALL
USER_CHARGES

@<TRIPOS>ATOM
      1 C1         -0.0166    1.3699    0.0096 C.ar      1 <0>        -0.0761
      2 C2          1.1572    2.1045    0.0023 C.ar      1 <0>        -0.1187
      3 C3          2.3694    1.4373   -0.0129 C.ar      1 <0>        -0.0388
      4 C4          2.3887    0.0627   -0.0205 C.ar      1 <0>        -0.1571
      5 C5          1.2179   -0.7095   -0.0134 C.ar      1 <0>         0.1243
      6 C6          0.0021   -0.0041    0.0020 C.ar      1 <0>        -0.1194
      7 N1          1.3955   -2.0811   -0.0225 N.pl3     1 <0>        -0.6083
      8 C7          2.6545   -2.6113   -0.0374 C.2       1 <0>         0.2616
      9 C8          3.0385   -3.9533   -0.0487 C.2       1 <0>        -0.1395
     10 C9          4.4277   -4.3004   -0.0638 C.1       1 <0>         0.2760
     11 N2          5.5298   -4.5757   -0.0757 N.1       1 <0>        -0.4145
     12 C10         2.0145   -5.0127   -0.0451 C.ar      1 <0>         0.3144
     13 C11         2.3877   -6.3651   -0.0505 C.ar      1 <0>        -0.2824
     14 C12         1.4023   -7.3159   -0.0470 C.ar      1 <0>         0.2045
     15 N3          0.1312   -6.9385   -0.0385 N.ar      1 <0>        -0.5793
     16 C13        -0.2016   -5.6556   -0.0335 C.ar      1 <0>         0.5832
     17 N4          0.7163   -4.7013   -0.0311 N.ar      1 <0>        -0.6069
     18 N5         -1.5405   -5.3051   -0.0252 N.pl3     1 <0>        -0.6979
     19 C14        -2.5705   -6.3470   -0.0221 C.3       1 <0>         0.1810
     20 C15        -3.9340   -5.7054   -0.0130 C.ar      1 <0>        -0.0676
     21 C16        -4.5671   -5.4009    1.1824 C.ar      1 <0>        -0.1529
     22 C17        -5.8175   -4.8129    1.1515 C.ar      1 <0>         0.0990
     23 N6         -6.4074   -4.5421    0.0036 N.ar      1 <0>        -0.4783
     24 C18        -5.8352   -4.8177   -1.1521 C.ar      1 <0>         0.0991
     25 C19        -4.5828   -5.4002   -1.1997 C.ar      1 <0>        -0.1529
     26 S1          3.6842   -1.1528   -0.0394 S.3       1 <0>         0.0777
     27 H1         -0.9648    1.8866    0.0260 H         1 <0>         0.1391
     28 H2          1.1270    3.1841    0.0081 H         1 <0>         0.1433
     29 H3          3.2952    1.9934   -0.0191 H         1 <0>         0.1413
     30 H4         -0.9301   -0.5494    0.0080 H         1 <0>         0.1325
     31 H5          0.6237   -2.6686   -0.0180 H         1 <0>         0.4326
     32 H6          3.4294   -6.6500   -0.0577 H         1 <0>         0.1422
     33 H7          1.6584   -8.3651   -0.0513 H         1 <0>         0.1697
     34 H8         -1.7970   -4.3696   -0.0215 H         1 <0>         0.4108
     35 H9         -2.4654   -6.9644   -0.9142 H         1 <0>         0.0824
     36 H10        -2.4555   -6.9688    0.8657 H         1 <0>         0.0825
     37 H11        -4.0894   -5.6209    2.1257 H         1 <0>         0.1377
     38 H12        -6.3173   -4.5726    2.0783 H         1 <0>         0.1590
     39 H13        -6.3494   -4.5817   -2.0720 H         1 <0>         0.1590
     40 H14        -4.1172   -5.6190   -2.1493 H         1 <0>         0.1377
@<TRIPOS>BOND
     1    1    6 ar
     2    1    2 ar
     3    1   27 1
     4    2    3 ar
     5    2   28 1
     6    3    4 ar
     7    3   29 1
     8    4   26 1
     9    4    5 ar
    10    5    6 ar
    11    5    7 1
    12    6   30 1
    13    7    8 1
    14    7   31 1
    15    8    9 2
    16    8   26 1
    17    9   10 1
    18    9   12 1
    19   10   11 3
    20   12   17 ar
    21   12   13 ar
    22   13   14 ar
    23   13   32 1
    24   14   15 ar
    25   14   33 1
    26   15   16 ar
    27   16   17 ar
    28   16   18 1
    29   18   19 1
    30   18   34 1
    31   19   20 1
    32   19   35 1
    33   19   36 1
    34   20   25 ar
    35   20   21 ar
    36   21   22 ar
    37   21   37 1
    38   22   23 ar
    39   22   38 1
    40   23   24 ar
    41   24   25 ar
    42   24   39 1
    43   25   40 1
@<TRIPOS>MOLECULE
CHEMBL189852__1
   40    43     0     0     0
SMALL
USER_CHARGES

@<TRIPOS>ATOM
      1 C1         -0.0166    1.3699    0.0096 C.ar      1 <0>        -0.0798
      2 C2          1.1572    2.1045    0.0023 C.ar      1 <0>        -0.1185
      3 C3          2.3694    1.4373   -0.0129 C.ar      1 <0>        -0.0395
      4 C4          2.3887    0.0627   -0.0205 C.ar      1 <0>        -0.1880
      5 C5          1.2179   -0.7095   -0.0134 C.ar      1 <0>         0.1188
      6 C6          0.0021   -0.0041    0.0020 C.ar      1 <0>        -0.1204
      7 N1          1.3955   -2.0811   -0.0225 N.pl3     1 <0>        -0.6286
      8 C7          2.6545   -2.6113   -0.0374 C.2       1 <0>         0.2420
      9 C8          3.0385   -3.9533   -0.0487 C.2       1 <0>        -0.1381
     10 C9          2.0433   -4.9829   -0.0452 C.1       1 <0>         0.2721
     11 N2          1.2537   -5.7996   -0.0424 N.1       1 <0>        -0.4247
     12 C10         4.4680   -4.3104   -0.0642 C.ar      1 <0>         0.3098
     13 C11         4.8666   -5.6555   -0.0815 C.ar      1 <0>        -0.2837
     14 C12         6.2058   -5.9409   -0.0954 C.ar      1 <0>         0.2012
     15 N3          7.0848   -4.9482   -0.0923 N.ar      1 <0>        -0.5804
     16 C13         6.6886   -3.6836   -0.0759 C.ar      1 <0>         0.5832
     17 N4          5.4049   -3.3593   -0.0676 N.ar      1 <0>        -0.5819
     18 N5          7.6395   -2.6778   -0.0728 N.pl3     1 <0>        -0.6962
     19 C14         9.0646   -3.0170   -0.0875 C.3       1 <0>         0.1811
     20 C15         9.8823   -1.7512   -0.0806 C.ar      1 <0>        -0.0664
     21 C16        10.2533   -1.1394   -1.2683 C.ar      1 <0>        -0.1523
     22 C17        11.0034    0.0205   -1.2227 C.ar      1 <0>         0.0985
     23 N6         11.3659    0.5444   -0.0681 N.ar      1 <0>        -0.4793
     24 C18        11.0313   -0.0101    1.0806 C.ar      1 <0>         0.0985
     25 C19        10.2768   -1.1675    1.1136 C.ar      1 <0>        -0.1523
     26 S1          3.6842   -1.1528   -0.0394 S.3       1 <0>         0.1836
     27 H1         -0.9648    1.8866    0.0260 H         1 <0>         0.1376
     28 H2          1.1270    3.1841    0.0081 H         1 <0>         0.1415
     29 H3          3.2952    1.9934   -0.0191 H         1 <0>         0.1399
     30 H4         -0.9301   -0.5494    0.0080 H         1 <0>         0.1310
     31 H5          0.6237   -2.6686   -0.0180 H         1 <0>         0.4165
     32 H6          4.1333   -6.4484   -0.0833 H         1 <0>         0.1386
     33 H7          6.5434   -6.9667   -0.1085 H         1 <0>         0.1676
     34 H8          7.3622   -1.7483   -0.0608 H         1 <0>         0.4138
     35 H9          9.3060   -3.6103    0.7944 H         1 <0>         0.0815
     36 H10         9.2920   -3.5916   -0.9854 H         1 <0>         0.0815
     37 H11         9.9600   -1.5640   -2.2170 H         1 <0>         0.1377
     38 H12        11.2964    0.5032   -2.1433 H         1 <0>         0.1584
     39 H13        11.3469    0.4479    2.0063 H         1 <0>         0.1584
     40 H14        10.0016   -1.6142    2.0576 H         1 <0>         0.1377
@<TRIPOS>BOND
     1    1    6 ar
     2    1    2 ar
     3    1   27 1
     4    2    3 ar
     5    2   28 1
     6    3    4 ar
     7    3   29 1
     8    4   26 1
     9    4    5 ar
    10    5    6 ar
    11    5    7 1
    12    6   30 1
    13    7    8 1
    14    7   31 1
    15    8    9 2
    16    8   26 1
    17    9   10 1
    18    9   12 1
    19   10   11 3
    20   12   17 ar
    21   12   13 ar
    22   13   14 ar
    23   13   32 1
    24   14   15 ar
    25   14   33 1
    26   15   16 ar
    27   16   17 ar
    28   16   18 1
    29   18   19 1
    30   18   34 1
    31   19   20 1
    32   19   35 1
    33   19   36 1
    34   20   25 ar
    35   20   21 ar
    36   21   22 ar
    37   21   37 1
    38   22   23 ar
    39   22   38 1
    40   23   24 ar
    41   24   25 ar
    42   24   39 1
    43   25   40 1
@<TRIPOS>MOLECULE
CHEMBL259060
   53    56     0     0     0
SMALL
USER_CHARGES

@<TRIPOS>ATOM
      1 C1         -0.0102    1.4577    0.1081 C.3       1 <0>         0.0138
      2 O1         -0.0129    0.0300    0.0477 O.3       1 <0>        -0.3357
      3 C2          0.6452   -0.5405   -0.9822 C.2       1 <0>         0.4949
      4 O2          1.2058    0.1560   -1.8060 O.2       1 <0>        -0.4457
      5 C3          0.6846   -2.0036   -1.1084 C.2       1 <0>         0.1090
      6 C4          1.2182   -2.5665   -2.2501 C.2       1 <0>        -0.0188
      7 C5          1.2569   -4.0318   -2.3737 C.ar      1 <0>        -0.0014
      8 C6          1.7836   -4.6576   -3.5014 C.ar      1 <0>        -0.0755
      9 C7          1.7983   -6.0357   -3.5710 C.ar      1 <0>        -0.0602
     10 C8          1.2935   -6.8020   -2.5284 C.ar      1 <0>        -0.0938
     11 C9          0.7682   -6.2015   -1.4043 C.ar      1 <0>        -0.0429
     12 C10         0.7436   -4.8110   -1.3135 C.ar      1 <0>        -0.1185
     13 C11         0.1942   -4.1257   -0.1348 C.2       1 <0>         0.5505
     14 O3         -0.2542   -4.7734    0.7933 O.2       1 <0>        -0.5041
     15 N1          0.1929   -2.7805   -0.0811 N.am      1 <0>        -0.5035
     16 C12        -0.3550   -2.1199    1.1062 C.3       1 <0>         0.1062
     17 C13        -1.8524   -2.0118    0.9749 C.ar      1 <0>        -0.0548
     18 C14        -2.4098   -0.9710    0.2558 C.ar      1 <0>        -0.1306
     19 C15        -3.7833   -0.8718    0.1354 C.ar      1 <0>        -0.0317
     20 C16        -4.5994   -1.8136    0.7336 C.ar      1 <0>        -0.6519
     21 C17        -4.0420   -2.8549    1.4519 C.ar      1 <0>        -0.0276
     22 C18        -2.6683   -2.9565    1.5687 C.ar      1 <0>        -0.1100
     23 S1         -6.3502   -1.6865    0.5810 S.o2      1 <0>         2.4981
     24 O4         -6.8632   -2.3481    1.7292 O.2       1 <0>        -0.9355
     25 O5         -6.5964   -0.3027    0.3719 O.2       1 <0>        -0.9365
     26 C19        -6.7572   -2.6268   -0.9159 C.3       1 <0>        -0.6506
     27 Br1         2.5118   -6.8888   -5.1003 Br        1 <0>        -0.0285
     28 C20         1.7433   -1.7085   -3.3342 C.ar      1 <0>        -0.0412
     29 C21         0.8823   -0.8689   -4.0431 C.ar      1 <0>        -0.0708
     30 C22         1.3786   -0.0708   -5.0529 C.ar      1 <0>        -0.1158
     31 C23         2.7267   -0.1011   -5.3636 C.ar      1 <0>        -0.1065
     32 C24         3.5855   -0.9310   -4.6648 C.ar      1 <0>        -0.1183
     33 C25         3.1031   -1.7303   -3.6492 C.ar      1 <0>        -0.0971
     34 H1          1.0165    1.8163    0.1819 H         1 <0>         0.0699
     35 H2         -0.4718    1.8604   -0.7936 H         1 <0>         0.0698
     36 H3         -0.5733    1.7855    0.9819 H         1 <0>         0.1106
     37 H4          2.1775   -4.0681   -4.3161 H         1 <0>         0.1496
     38 H5          1.3124   -7.8795   -2.5993 H         1 <0>         0.1472
     39 H6          0.3782   -6.8052   -0.5982 H         1 <0>         0.1533
     40 H7         -0.1093   -2.7042    1.9929 H         1 <0>         0.1091
     41 H8          0.0747   -1.1224    1.1978 H         1 <0>         0.1466
     42 H9         -1.7722   -0.2352   -0.2116 H         1 <0>         0.1476
     43 H10        -4.2188   -0.0583   -0.4258 H         1 <0>         0.1421
     44 H11        -4.6796   -3.5905    1.9195 H         1 <0>         0.1440
     45 H12        -2.2327   -3.7721    2.1268 H         1 <0>         0.1407
     46 H13        -6.4372   -3.6615   -0.7932 H         1 <0>         0.1317
     47 H14        -7.8340   -2.5967   -1.0823 H         1 <0>         0.1344
     48 H15        -6.2449   -2.1871   -1.7717 H         1 <0>         0.1310
     49 H16        -0.1701   -0.8446   -3.8018 H         1 <0>         0.1136
     50 H17         0.7135    0.5789   -5.6023 H         1 <0>         0.1234
     51 H18         3.1101    0.5255   -6.1552 H         1 <0>         0.1230
     52 H19         4.6365   -0.9502   -4.9125 H         1 <0>         0.1253
     53 H20         3.7751   -2.3745   -3.1018 H         1 <0>         0.1221
@<TRIPOS>BOND
     1    1    2 1
     2    1   34 1
     3    1   35 1
     4    1   36 1
     5    2    3 1
     6    3    4 2
     7    3    5 1
     8    5   15 1
     9    5    6 2
    10    6    7 1
    11    6   28 1
    12    7   12 ar
    13    7    8 ar
    14    8    9 ar
    15    8   37 1
    16    9   10 ar
    17    9   27 1
    18   10   11 ar
    19   10   38 1
    20   11   12 ar
    21   11   39 1
    22   12   13 1
    23   13   14 2
    24   13   15 am
    25   15   16 1
    26   16   17 1
    27   16   40 1
    28   16   41 1
    29   17   22 ar
    30   17   18 ar
    31   18   19 ar
    32   18   42 1
    33   19   20 ar
    34   19   43 1
    35   20   21 ar
    36   20   23 1
    37   21   22 ar
    38   21   44 1
    39   22   45 1
    40   23   24 2
    41   23   25 2
    42   23   26 1
    43   26   46 1
    44   26   47 1
    45   26   48 1
    46   28   33 ar
    47   28   29 ar
    48   29   30 ar
    49   29   49 1
    50   30   31 ar
    51   30   50 1
    52   31   32 ar
    53   31   51 1
    54   32   33 ar
    55   32   52 1
    56   33   53 1
@<TRIPOS>MOLECULE
CHEMBL248790
   44    47     0     0     0
SMALL
USER_CHARGES

@<TRIPOS>ATOM
      1 C1         -0.1310    1.7670    0.0082 C.3       1 <0>        -0.6373
      2 S1         -0.0792   -0.0462    0.0019 S.o2      1 <0>         2.5267
      3 O1          0.7653   -0.5154    1.0440 O.2       1 <0>        -1.0272
      4 O2         -1.3888   -0.5727   -0.1617 O.2       1 <0>        -1.0273
      5 N1          0.7140   -0.4444   -1.3963 N.2       1 <0>        -1.0927
      6 C2          0.9301   -1.7852   -1.7185 C.ar      1 <0>         0.3006
      7 C3          0.4739   -2.7857   -0.8678 C.ar      1 <0>        -0.2580
      8 C4          0.6858   -4.1106   -1.1843 C.ar      1 <0>        -0.0405
      9 C5          1.3582   -4.4468   -2.3585 C.ar      1 <0>        -0.1802
     10 C6          1.8148   -3.4418   -3.2102 C.ar      1 <0>        -0.0546
     11 C7          1.5960   -2.1183   -2.8924 C.ar      1 <0>        -0.1866
     12 C8          1.5878   -5.8715   -2.7009 C.ar      1 <0>        -0.0321
     13 C9          2.2618   -6.2111   -3.8664 C.ar      1 <0>        -0.1003
     14 C10         2.4528   -7.5729   -4.1439 C.ar      1 <0>        -0.0960
     15 C11         1.9562   -8.5402   -3.2346 C.ar      1 <0>         0.1226
     16 C12         2.1480   -9.9041   -3.5137 C.ar      1 <0>        -0.1088
     17 C13         2.8040  -10.2844   -4.6449 C.ar      1 <0>        -0.0929
     18 C14         3.2958   -9.3433   -5.5437 C.ar      1 <0>        -0.1342
     19 C15         3.1285   -7.9944   -5.3097 C.ar      1 <0>         0.1721
     20 N2          3.6227   -7.0568   -6.2143 N.pl3     1 <0>        -0.6257
     21 C16         3.8067   -7.4057   -7.5424 C.ar      1 <0>         0.5575
     22 N3          3.3939   -8.5926   -7.9625 N.ar      1 <0>        -0.5505
     23 C17         3.5539   -8.9566   -9.2239 C.ar      1 <0>         0.1856
     24 C18         4.1615   -8.0795  -10.1089 C.ar      1 <0>        -0.2855
     25 C19         4.5814   -6.8460   -9.6360 C.ar      1 <0>         0.1914
     26 N4          4.3864   -6.5424   -8.3635 N.ar      1 <0>        -0.5611
     27 N5          1.3137   -8.1521   -2.1273 N.ar      1 <0>        -0.4708
     28 C20         1.1305   -6.8864   -1.8467 C.ar      1 <0>         0.1317
     29 H1          0.8857    2.1596   -0.0044 H         1 <0>         0.1158
     30 H2         -0.6670    2.1183   -0.8735 H         1 <0>         0.1157
     31 H3         -0.6429    2.1127    0.9063 H         1 <0>         0.1026
     32 H4         -0.0465   -2.5247    0.0418 H         1 <0>         0.1061
     33 H5          0.3316   -4.8875   -0.5230 H         1 <0>         0.1079
     34 H6          2.3358   -3.7001   -4.1203 H         1 <0>         0.1055
     35 H7          1.9459   -1.3396   -3.5539 H         1 <0>         0.1149
     36 H8          2.6278   -5.4497   -4.5392 H         1 <0>         0.1307
     37 H9          1.7749  -10.6519   -2.8297 H         1 <0>         0.1299
     38 H10         2.9453  -11.3357   -4.8478 H         1 <0>         0.1261
     39 H11         3.8127   -9.6719   -6.4332 H         1 <0>         0.1483
     40 H12         3.8378   -6.1599   -5.9142 H         1 <0>         0.4245
     41 H13         3.2157   -9.9255   -9.5603 H         1 <0>         0.1699
     42 H14         4.3050   -8.3515  -11.1442 H         1 <0>         0.1457
     43 H15         5.0582   -6.1398  -10.2995 H         1 <0>         0.1699
     44 H16         0.6107   -6.6173   -0.9390 H         1 <0>         0.1609
@<TRIPOS>BOND
     1    1    2 1
     2    1   29 1
     3    1   30 1
     4    1   31 1
     5    2    3 2
     6    2    4 2
     7    2    5 1
     8    5    6 1
     9    6   11 ar
    10    6    7 ar
    11    7    8 ar
    12    7   32 1
    13    8    9 ar
    14    8   33 1
    15    9   10 ar
    16    9   12 1
    17   10   11 ar
    18   10   34 1
    19   11   35 1
    20   12   28 ar
    21   12   13 ar
    22   13   14 ar
    23   13   36 1
    24   14   19 ar
    25   14   15 ar
    26   15   16 ar
    27   15   27 ar
    28   16   17 ar
    29   16   37 1
    30   17   18 ar
    31   17   38 1
    32   18   19 ar
    33   18   39 1
    34   19   20 1
    35   20   21 1
    36   20   40 1
    37   21   26 ar
    38   21   22 ar
    39   22   23 ar
    40   23   24 ar
    41   23   41 1
    42   24   25 ar
    43   24   42 1
    44   25   26 ar
    45   25   43 1
    46   27   28 ar
    47   28   44 1
@<TRIPOS>MOLECULE
CHEMBL190742
   40    43     0     0     0
SMALL
USER_CHARGES

@<TRIPOS>ATOM
      1 C1         -0.0166    1.3699    0.0096 C.ar      1 <0>        -0.0762
      2 C2          1.1572    2.1045    0.0023 C.ar      1 <0>        -0.1189
      3 C3          2.3694    1.4373   -0.0129 C.ar      1 <0>        -0.0388
      4 C4          2.3887    0.0627   -0.0205 C.ar      1 <0>        -0.1571
      5 C5          1.2179   -0.7095   -0.0134 C.ar      1 <0>         0.1247
      6 C6          0.0021   -0.0041    0.0020 C.ar      1 <0>        -0.1195
      7 N1          1.3955   -2.0811   -0.0225 N.pl3     1 <0>        -0.6084
      8 C7          2.6545   -2.6113   -0.0374 C.2       1 <0>         0.2614
      9 C8          3.0385   -3.9533   -0.0487 C.2       1 <0>        -0.1391
     10 C9          4.4277   -4.3004   -0.0638 C.1       1 <0>         0.2761
     11 N2          5.5298   -4.5757   -0.0757 N.1       1 <0>        -0.4148
     12 C10         2.0145   -5.0127   -0.0451 C.ar      1 <0>         0.3141
     13 C11         2.3877   -6.3651   -0.0505 C.ar      1 <0>        -0.2830
     14 C12         1.4023   -7.3159   -0.0470 C.ar      1 <0>         0.2045
     15 N3          0.1312   -6.9385   -0.0385 N.ar      1 <0>        -0.5790
     16 C13        -0.2016   -5.6556   -0.0335 C.ar      1 <0>         0.5829
     17 N4          0.7163   -4.7013   -0.0311 N.ar      1 <0>        -0.6073
     18 N5         -1.5405   -5.3051   -0.0252 N.pl3     1 <0>        -0.6986
     19 C14        -2.5705   -6.3470   -0.0221 C.3       1 <0>         0.1871
     20 C15        -3.9340   -5.7054   -0.0130 C.ar      1 <0>        -0.1662
     21 C16        -4.5602   -5.4042    1.1871 C.ar      1 <0>        -0.0538
     22 C17        -5.8142   -4.8145    1.1472 C.ar      1 <0>        -0.1742
     23 C18        -6.3945   -4.5482   -0.0787 C.ar      1 <0>         0.1082
     24 N6         -5.7697   -4.8487   -1.2003 N.ar      1 <0>        -0.4849
     25 C19        -4.5737   -5.4045   -1.2003 C.ar      1 <0>         0.1209
     26 S1          3.6842   -1.1528   -0.0394 S.3       1 <0>         0.0771
     27 H1         -0.9648    1.8866    0.0260 H         1 <0>         0.1390
     28 H2          1.1270    3.1841    0.0081 H         1 <0>         0.1431
     29 H3          3.2952    1.9934   -0.0191 H         1 <0>         0.1412
     30 H4         -0.9301   -0.5494    0.0080 H         1 <0>         0.1325
     31 H5          0.6237   -2.6686   -0.0180 H         1 <0>         0.4327
     32 H6          3.4294   -6.6500   -0.0577 H         1 <0>         0.1419
     33 H7          1.6584   -8.3651   -0.0513 H         1 <0>         0.1694
     34 H8         -1.7970   -4.3696   -0.0215 H         1 <0>         0.4101
     35 H9         -2.4654   -6.9644   -0.9142 H         1 <0>         0.0817
     36 H10        -2.4555   -6.9688    0.8657 H         1 <0>         0.0800
     37 H11        -4.0825   -5.6242    2.1304 H         1 <0>         0.1367
     38 H12        -6.3313   -4.5666    2.0624 H         1 <0>         0.1387
     39 H13        -7.3712   -4.0889   -0.1185 H         1 <0>         0.1588
     40 H14        -4.0906   -5.6315   -2.1392 H         1 <0>         0.1569
@<TRIPOS>BOND
     1    1    6 ar
     2    1    2 ar
     3    1   27 1
     4    2    3 ar
     5    2   28 1
     6    3    4 ar
     7    3   29 1
     8    4   26 1
     9    4    5 ar
    10    5    6 ar
    11    5    7 1
    12    6   30 1
    13    7    8 1
    14    7   31 1
    15    8    9 2
    16    8   26 1
    17    9   10 1
    18    9   12 1
    19   10   11 3
    20   12   17 ar
    21   12   13 ar
    22   13   14 ar
    23   13   32 1
    24   14   15 ar
    25   14   33 1
    26   15   16 ar
    27   16   17 ar
    28   16   18 1
    29   18   19 1
    30   18   34 1
    31   19   20 1
    32   19   35 1
    33   19   36 1
    34   20   25 ar
    35   20   21 ar
    36   21   22 ar
    37   21   37 1
    38   22   23 ar
    39   22   38 1
    40   23   24 ar
    41   23   39 1
    42   24   25 ar
    43   25   40 1
@<TRIPOS>MOLECULE
CHEMBL190742__1
   40    43     0     0     0
SMALL
USER_CHARGES

@<TRIPOS>ATOM
      1 C1         -0.0166    1.3699    0.0096 C.ar      1 <0>        -0.0799
      2 C2          1.1572    2.1045    0.0023 C.ar      1 <0>        -0.1188
      3 C3          2.3694    1.4373   -0.0129 C.ar      1 <0>        -0.0395
      4 C4          2.3887    0.0627   -0.0205 C.ar      1 <0>        -0.1881
      5 C5          1.2179   -0.7095   -0.0134 C.ar      1 <0>         0.1190
      6 C6          0.0021   -0.0041    0.0020 C.ar      1 <0>        -0.1206
      7 N1          1.3955   -2.0811   -0.0225 N.pl3     1 <0>        -0.6288
      8 C7          2.6545   -2.6113   -0.0374 C.2       1 <0>         0.2417
      9 C8          3.0385   -3.9533   -0.0487 C.2       1 <0>        -0.1377
     10 C9          2.0433   -4.9829   -0.0452 C.1       1 <0>         0.2722
     11 N2          1.2537   -5.7996   -0.0424 N.1       1 <0>        -0.4250
     12 C10         4.4680   -4.3104   -0.0642 C.ar      1 <0>         0.3095
     13 C11         4.8666   -5.6555   -0.0815 C.ar      1 <0>        -0.2843
     14 C12         6.2058   -5.9409   -0.0954 C.ar      1 <0>         0.2012
     15 N3          7.0848   -4.9482   -0.0923 N.ar      1 <0>        -0.5800
     16 C13         6.6886   -3.6836   -0.0759 C.ar      1 <0>         0.5829
     17 N4          5.4049   -3.3593   -0.0676 N.ar      1 <0>        -0.5823
     18 N5          7.6395   -2.6778   -0.0728 N.pl3     1 <0>        -0.6969
     19 C14         9.0646   -3.0170   -0.0875 C.3       1 <0>         0.1872
     20 C15         9.8823   -1.7512   -0.0806 C.ar      1 <0>        -0.1649
     21 C16        10.2491   -1.1457   -1.2731 C.ar      1 <0>        -0.0535
     22 C17        11.0015    0.0173   -1.2184 C.ar      1 <0>        -0.1746
     23 C18        11.3586    0.5312    0.0141 C.ar      1 <0>         0.1074
     24 N6         10.9923   -0.0718    1.1280 N.ar      1 <0>        -0.4856
     25 C19        10.2713   -1.1760    1.1141 C.ar      1 <0>         0.1211
     26 S1          3.6842   -1.1528   -0.0394 S.3       1 <0>         0.1838
     27 H1         -0.9648    1.8866    0.0260 H         1 <0>         0.1375
     28 H2          1.1270    3.1841    0.0081 H         1 <0>         0.1413
     29 H3          3.2952    1.9934   -0.0191 H         1 <0>         0.1397
     30 H4         -0.9301   -0.5494    0.0080 H         1 <0>         0.1309
     31 H5          0.6237   -2.6686   -0.0180 H         1 <0>         0.4164
     32 H6          4.1333   -6.4484   -0.0833 H         1 <0>         0.1382
     33 H7          6.5434   -6.9667   -0.1085 H         1 <0>         0.1674
     34 H8          7.3622   -1.7483   -0.0608 H         1 <0>         0.4131
     35 H9          9.3060   -3.6103    0.7944 H         1 <0>         0.0808
     36 H10         9.2920   -3.5916   -0.9854 H         1 <0>         0.0791
     37 H11         9.9559   -1.5704   -2.2218 H         1 <0>         0.1368
     38 H12        11.3051    0.5154   -2.1273 H         1 <0>         0.1381
     39 H13        11.9447    1.4369    0.0653 H         1 <0>         0.1580
     40 H14         9.9856   -1.6388    2.0472 H         1 <0>         0.1571
@<TRIPOS>BOND
     1    1    6 ar
     2    1    2 ar
     3    1   27 1
     4    2    3 ar
     5    2   28 1
     6    3    4 ar
     7    3   29 1
     8    4   26 1
     9    4    5 ar
    10    5    6 ar
    11    5    7 1
    12    6   30 1
    13    7    8 1
    14    7   31 1
    15    8    9 2
    16    8   26 1
    17    9   10 1
    18    9   12 1
    19   10   11 3
    20   12   17 ar
    21   12   13 ar
    22   13   14 ar
    23   13   32 1
    24   14   15 ar
    25   14   33 1
    26   15   16 ar
    27   16   17 ar
    28   16   18 1
    29   18   19 1
    30   18   34 1
    31   19   20 1
    32   19   35 1
    33   19   36 1
    34   20   25 ar
    35   20   21 ar
    36   21   22 ar
    37   21   37 1
    38   22   23 ar
    39   22   38 1
    40   23   24 ar
    41   23   39 1
    42   24   25 ar
    43   25   40 1
@<TRIPOS>MOLECULE
CHEMBL392615
   52    55     0     0     0
SMALL
USER_CHARGES

@<TRIPOS>ATOM
      1 C1         -0.2335    1.9651   -1.1457 C.3       1 <0>         0.0778
      2 N1         -0.2210    0.5099   -0.9770 N.am      1 <0>        -0.7051
      3 C2          0.4144   -0.2673   -1.8763 C.2       1 <0>         0.4972
      4 O1          0.9757    0.2380   -2.8252 O.2       1 <0>        -0.5242
      5 C3          0.4272   -1.7643   -1.7027 C.3       1 <0>        -0.0325
      6 N2          1.1785   -2.3786   -2.8055 N.4       1 <0>        -0.3725
      7 C4          0.4766   -2.1320   -4.0708 C.3       1 <0>        -0.0200
      8 C5          1.2958   -2.6996   -5.2320 C.3       1 <0>        -0.1411
      9 C6          1.4773   -4.2071   -5.0325 C.3       1 <0>        -0.1476
     10 C7          2.1433   -4.4560   -3.6762 C.3       1 <0>         0.1475
     11 H1          2.2254   -5.5289   -3.5025 H         1 <0>         0.1393
     12 C8          1.2927   -3.8233   -2.5727 C.3       1 <0>        -0.0154
     13 N3          3.4796   -3.8557   -3.6698 N.pl3     1 <0>        -0.7114
     14 C9          4.5576   -4.5604   -4.1786 C.ar      1 <0>         0.5662
     15 N4          4.3600   -5.7743   -4.6720 N.ar      1 <0>        -0.5590
     16 C10         5.3642   -6.4813   -5.1686 C.ar      1 <0>         0.2114
     17 C11         6.6368   -5.9406   -5.1701 C.ar      1 <0>        -0.1901
     18 C12         6.8157   -4.6558   -4.6423 C.ar      1 <0>         0.3303
     19 N5          5.7572   -4.0018   -4.1643 N.ar      1 <0>        -0.5439
     20 C13         8.1566   -4.0326   -4.6206 C.2       1 <0>        -0.1724
     21 C14         9.0378   -3.9677   -5.6516 C.2       1 <0>         0.1239
     22 N6         10.1660   -3.3179   -5.2531 N.pl3     1 <0>        -0.5791
     23 H2         10.9373   -3.1491   -5.8167 H         1 <0>         0.4250
     24 C15        10.0546   -2.9340   -3.9337 C.ar      1 <0>         0.0900
     25 C16         8.7939   -3.3558   -3.4787 C.ar      1 <0>        -0.0675
     26 C17         8.4020   -3.0946   -2.1672 C.ar      1 <0>        -0.0717
     27 C18         9.2547   -2.4188   -1.3226 C.ar      1 <0>        -0.1360
     28 C19        10.4984   -1.9986   -1.7719 C.ar      1 <0>        -0.0973
     29 C20        10.9030   -2.2576   -3.0633 C.ar      1 <0>        -0.1203
     30 Cl1         7.9808   -6.8333   -5.8107 Cl        1 <0>        -0.0284
     31 H3          0.7899    2.3401   -1.1415 H         1 <0>         0.0733
     32 H4         -0.7088    2.2168   -2.0937 H         1 <0>         0.0731
     33 H5         -0.7909    2.4209   -0.3274 H         1 <0>         0.0920
     34 H6         -0.6699    0.1057   -0.2180 H         1 <0>         0.4133
     35 H7          0.9026   -2.0160   -0.7547 H         1 <0>         0.1616
     36 H8         -0.5962   -2.1393   -1.7069 H         1 <0>         0.1629
     37 H9         -0.4996   -2.6162   -4.0446 H         1 <0>         0.1295
     38 H10         0.3452   -1.0589   -4.2098 H         1 <0>         0.1480
     39 H11         0.7721   -2.5171   -6.1703 H         1 <0>         0.1140
     40 H12         2.2721   -2.2158   -5.2592 H         1 <0>         0.0870
     41 H13         0.5043   -4.6977   -5.0564 H         1 <0>         0.0942
     42 H14         2.1078   -4.6065   -5.8269 H         1 <0>         0.1002
     43 H15         1.7639   -3.9989   -1.6056 H         1 <0>         0.1401
     44 H16         0.2991   -4.2715   -2.5784 H         1 <0>         0.1512
     45 H17         3.6094   -2.9647   -3.3091 H         1 <0>         0.4042
     46 H18         5.1908   -7.4698   -5.5676 H         1 <0>         0.1828
     47 H19         8.8694   -4.3711   -6.6392 H         1 <0>         0.1779
     48 H20         7.4344   -3.4201   -1.8148 H         1 <0>         0.1174
     49 H21         8.9537   -2.2146   -0.3057 H         1 <0>         0.1247
     50 H22        11.1587   -1.4695   -1.1007 H         1 <0>         0.1300
     51 H23        11.8724   -1.9243   -3.4033 H         1 <0>         0.1256
     52 H24         2.1009   -1.9722   -2.8502 H         1 <0>         0.4239
@<TRIPOS>BOND
     1    1    2 1
     2    1   31 1
     3    1   32 1
     4    1   33 1
     5    2    3 am
     6    2   34 1
     7    3    4 2
     8    3    5 1
     9    5    6 1
    10    5   35 1
    11    5   36 1
    12    6   12 1
    13    6    7 1
    14    6   52 1
    15    7    8 1
    16    7   37 1
    17    7   38 1
    18    8    9 1
    19    8   39 1
    20    8   40 1
    21    9   10 1
    22    9   41 1
    23    9   42 1
    24   10   11 1
    25   10   12 1
    26   10   13 1
    27   12   43 1
    28   12   44 1
    29   13   14 1
    30   13   45 1
    31   14   19 ar
    32   14   15 ar
    33   15   16 ar
    34   16   17 ar
    35   16   46 1
    36   17   18 ar
    37   17   30 1
    38   18   19 ar
    39   18   20 1
    40   20   25 1
    41   20   21 2
    42   21   22 1
    43   21   47 1
    44   22   23 1
    45   22   24 1
    46   24   29 ar
    47   24   25 ar
    48   25   26 ar
    49   26   27 ar
    50   26   48 1
    51   27   28 ar
    52   27   49 1
    53   28   29 ar
    54   28   50 1
    55   29   51 1
@<TRIPOS>MOLECULE
CHEMBL392615__1
   51    54     0     0     0
SMALL
USER_CHARGES

@<TRIPOS>ATOM
      1 C1         -0.9095    1.9279    0.7875 C.3       1 <0>         0.0878
      2 N1         -0.7374    0.4755    0.7036 N.am      1 <0>        -0.7391
      3 C2         -1.8158   -0.3260    0.5983 C.2       1 <0>         0.5103
      4 O1         -2.9288    0.1552    0.5731 O.2       1 <0>        -0.5163
      5 C3         -1.6387   -1.8201    0.5120 C.3       1 <0>         0.0364
      6 N2         -2.9548   -2.4638    0.4049 N.3       1 <0>        -0.5222
      7 C4         -3.7370   -2.2698    1.6324 C.3       1 <0>         0.0500
      8 C5         -5.1491   -2.8247    1.4321 C.3       1 <0>        -0.1133
      9 C6         -5.0629   -4.3146    1.0897 C.3       1 <0>        -0.1336
     10 C7         -4.2030   -4.4931   -0.1646 C.3       1 <0>         0.1687
     11 H1         -4.1026   -5.5550   -0.3889 H         1 <0>         0.0982
     12 C8         -2.8184   -3.8898    0.0820 C.3       1 <0>         0.0454
     13 N3         -4.8397   -3.8125   -1.2949 N.pl3     1 <0>        -0.6750
     14 C9         -5.8152   -4.4611   -2.0333 C.ar      1 <0>         0.5731
     15 N4         -6.1635   -5.6951   -1.6991 N.ar      1 <0>        -0.5642
     16 C10        -7.0926   -6.3503   -2.3792 C.ar      1 <0>         0.2120
     17 C11        -7.7059   -5.7332   -3.4539 C.ar      1 <0>        -0.2098
     18 C12        -7.3176   -4.4288   -3.7840 C.ar      1 <0>         0.3235
     19 N5         -6.3790   -3.8302   -3.0509 N.ar      1 <0>        -0.5491
     20 C13        -7.9428   -3.7247   -4.9243 C.2       1 <0>        -0.1552
     21 C14        -9.2712   -3.6286   -5.1887 C.2       1 <0>         0.1122
     22 N6         -9.4634   -2.9028   -6.3246 N.pl3     1 <0>        -0.5835
     23 H2        -10.3286   -2.6996   -6.7132 H         1 <0>         0.4212
     24 C15        -8.2517   -2.4979   -6.8428 C.ar      1 <0>         0.0902
     25 C16        -7.2465   -2.9857   -5.9908 C.ar      1 <0>        -0.0684
     26 C17        -5.9070   -2.7206   -6.2684 C.ar      1 <0>        -0.0640
     27 C18        -5.5753   -1.9759   -7.3787 C.ar      1 <0>        -0.1408
     28 C19        -6.5672   -1.4906   -8.2187 C.ar      1 <0>        -0.0985
     29 C20        -7.8954   -1.7524   -7.9617 C.ar      1 <0>        -0.1269
     30 Cl1        -8.9277   -6.5560   -4.3724 Cl        1 <0>        -0.0495
     31 H3          0.0670    2.4056    0.8670 H         1 <0>         0.0756
     32 H4         -1.4173    2.2859   -0.1081 H         1 <0>         0.0607
     33 H5         -1.5064    2.1729    1.6660 H         1 <0>         0.0593
     34 H6          0.1528    0.0906    0.7238 H         1 <0>         0.4014
     35 H7         -1.0418   -2.0650   -0.3665 H         1 <0>         0.1059
     36 H8         -1.1309   -2.1781    1.4076 H         1 <0>         0.0657
     37 H9         -3.2544   -2.7940    2.4573 H         1 <0>         0.0303
     38 H10        -3.7941   -1.2058    1.8623 H         1 <0>         0.0942
     39 H11        -5.7246   -2.6946    2.3486 H         1 <0>         0.0666
     40 H12        -5.6373   -2.2915    0.6164 H         1 <0>         0.0724
     41 H13        -4.6100   -4.8539    1.9217 H         1 <0>         0.0697
     42 H14        -6.0638   -4.7041    0.9037 H         1 <0>         0.0714
     43 H15        -2.2083   -4.0026   -0.8142 H         1 <0>         0.0845
     44 H16        -2.3401   -4.4065    0.9141 H         1 <0>         0.0551
     45 H17        -4.5778   -2.9076   -1.5262 H         1 <0>         0.4238
     46 H18        -7.3678   -7.3559   -2.0975 H         1 <0>         0.1742
     47 H19       -10.0571   -4.0629   -4.5886 H         1 <0>         0.1763
     48 H20        -5.1328   -3.0968   -5.6161 H         1 <0>         0.1214
     49 H21        -4.5380   -1.7685   -7.5962 H         1 <0>         0.1237
     50 H22        -6.2953   -0.9078   -9.0864 H         1 <0>         0.1266
     51 H23        -8.6595   -1.3682   -8.6211 H         1 <0>         0.1217
@<TRIPOS>BOND
     1    1    2 1
     2    1   31 1
     3    1   32 1
     4    1   33 1
     5    2    3 am
     6    2   34 1
     7    3    4 2
     8    3    5 1
     9    5    6 1
    10    5   35 1
    11    5   36 1
    12    6   12 1
    13    6    7 1
    14    7    8 1
    15    7   37 1
    16    7   38 1
    17    8    9 1
    18    8   39 1
    19    8   40 1
    20    9   10 1
    21    9   41 1
    22    9   42 1
    23   10   11 1
    24   10   12 1
    25   10   13 1
    26   12   43 1
    27   12   44 1
    28   13   14 1
    29   13   45 1
    30   14   19 ar
    31   14   15 ar
    32   15   16 ar
    33   16   17 ar
    34   16   46 1
    35   17   18 ar
    36   17   30 1
    37   18   19 ar
    38   18   20 1
    39   20   25 1
    40   20   21 2
    41   21   22 1
    42   21   47 1
    43   22   23 1
    44   22   24 1
    45   24   29 ar
    46   24   25 ar
    47   25   26 ar
    48   26   27 ar
    49   26   48 1
    50   27   28 ar
    51   27   49 1
    52   28   29 ar
    53   28   50 1
    54   29   51 1
@<TRIPOS>MOLECULE
CHEMBL245336
   52    55     0     0     0
SMALL
USER_CHARGES

@<TRIPOS>ATOM
      1 C1         -0.7081    1.6854   -0.5358 C.3       1 <0>         0.0779
      2 N1         -0.5324    0.2340   -0.4416 N.am      1 <0>        -0.7057
      3 C2          0.0863   -0.4358   -1.4341 C.2       1 <0>         0.4975
      4 O1          0.4976    0.1630   -2.4053 O.2       1 <0>        -0.5263
      5 C3          0.2670   -1.9288   -1.3372 C.3       1 <0>        -0.0311
      6 N2          0.9639   -2.4164   -2.5349 N.4       1 <0>        -0.3715
      7 C4          0.1195   -2.1949   -3.7148 C.3       1 <0>        -0.0111
      8 C5          0.8732   -2.6266   -4.9745 C.3       1 <0>        -0.1530
      9 C6          1.2246   -4.1134   -4.8682 C.3       1 <0>         0.1553
     10 C7          2.0426   -4.3447   -3.5945 C.3       1 <0>        -0.1610
     11 C8          1.2456   -3.8493   -2.3859 C.3       1 <0>        -0.0015
     12 N3          2.0123   -4.5153   -6.0361 N.pl3     1 <0>        -0.6956
     13 C9          2.0154   -5.8375   -6.4475 C.ar      1 <0>         0.5659
     14 N4          1.2953   -6.7240   -5.7754 N.ar      1 <0>        -0.5682
     15 C10         1.2706   -7.9984   -6.1364 C.ar      1 <0>         0.2094
     16 C11         2.0091   -8.4057   -7.2320 C.ar      1 <0>        -0.1958
     17 C12         2.7606   -7.4470   -7.9231 C.ar      1 <0>         0.3315
     18 N5          2.7330   -6.1818   -7.5048 N.ar      1 <0>        -0.5437
     19 C13         3.5674   -7.8313   -9.1013 C.2       1 <0>        -0.1708
     20 C14         3.1583   -8.5855  -10.1537 C.2       1 <0>         0.1222
     21 N6          4.1789   -8.7263  -11.0439 N.pl3     1 <0>        -0.5796
     22 H1          4.1253   -9.2235  -11.8751 H         1 <0>         0.4244
     23 C15         5.2992   -8.0604  -10.5945 C.ar      1 <0>         0.0899
     24 C16         4.9691   -7.4655   -9.3650 C.ar      1 <0>        -0.0679
     25 C17         5.9192   -6.7144   -8.6758 C.ar      1 <0>        -0.0703
     26 C18         7.1798   -6.5560   -9.2076 C.ar      1 <0>        -0.1362
     27 C19         7.5058   -7.1400  -10.4233 C.ar      1 <0>        -0.0971
     28 C20         6.5795   -7.8928  -11.1117 C.ar      1 <0>        -0.1215
     29 Cl1         2.0054  -10.0661   -7.7387 Cl        1 <0>        -0.0327
     30 H2          0.2678    2.1655   -0.6091 H         1 <0>         0.0731
     31 H3         -1.2975    1.9232   -1.4213 H         1 <0>         0.0730
     32 H4         -1.2252    2.0472    0.3528 H         1 <0>         0.0918
     33 H5         -0.8613   -0.2450    0.3351 H         1 <0>         0.4134
     34 H6          0.8564   -2.1667   -0.4517 H         1 <0>         0.1615
     35 H7         -0.7088   -2.4089   -1.2639 H         1 <0>         0.1608
     36 H8         -0.7956   -2.7797   -3.6211 H         1 <0>         0.1299
     37 H9         -0.1324   -1.1369   -3.7873 H         1 <0>         0.1519
     38 H10         0.2439   -2.4630   -5.8493 H         1 <0>         0.1199
     39 H11         1.7884   -2.0422   -5.0693 H         1 <0>         0.0961
     40 H12         0.3083   -4.7022   -4.8249 H         1 <0>         0.1093
     41 H13         2.2492   -5.4091   -3.4828 H         1 <0>         0.1193
     42 H14         2.9821   -3.7959   -3.6606 H         1 <0>         0.0906
     43 H15         1.8251   -4.0126   -1.4773 H         1 <0>         0.1355
     44 H16         0.3065   -4.3988   -2.3205 H         1 <0>         0.1355
     45 H17         2.5318   -3.8553   -6.5213 H         1 <0>         0.4201
     46 H18         0.6801   -8.7117   -5.5805 H         1 <0>         0.1797
     47 H19         2.1717   -9.0101  -10.2675 H         1 <0>         0.1775
     48 H20         5.6681   -6.2584   -7.7295 H         1 <0>         0.1182
     49 H21         7.9181   -5.9742   -8.6759 H         1 <0>         0.1250
     50 H22         8.4975   -7.0090  -10.8306 H         1 <0>         0.1297
     51 H23         6.8432   -8.3413  -12.0581 H         1 <0>         0.1250
     52 H24         1.8318   -1.9139   -2.6457 H         1 <0>         0.4299
@<TRIPOS>BOND
     1    1    2 1
     2    1   30 1
     3    1   31 1
     4    1   32 1
     5    2    3 am
     6    2   33 1
     7    3    4 2
     8    3    5 1
     9    5    6 1
    10    5   34 1
    11    5   35 1
    12    6   11 1
    13    6    7 1
    14    6   52 1
    15    7    8 1
    16    7   36 1
    17    7   37 1
    18    8    9 1
    19    8   38 1
    20    8   39 1
    21    9   10 1
    22    9   12 1
    23    9   40 1
    24   10   11 1
    25   10   41 1
    26   10   42 1
    27   11   43 1
    28   11   44 1
    29   12   13 1
    30   12   45 1
    31   13   18 ar
    32   13   14 ar
    33   14   15 ar
    34   15   16 ar
    35   15   46 1
    36   16   17 ar
    37   16   29 1
    38   17   18 ar
    39   17   19 1
    40   19   24 1
    41   19   20 2
    42   20   21 1
    43   20   47 1
    44   21   22 1
    45   21   23 1
    46   23   28 ar
    47   23   24 ar
    48   24   25 ar
    49   25   26 ar
    50   25   48 1
    51   26   27 ar
    52   26   49 1
    53   27   28 ar
    54   27   50 1
    55   28   51 1
@<TRIPOS>MOLECULE
CHEMBL245336__1
   51    54     0     0     0
SMALL
USER_CHARGES

@<TRIPOS>ATOM
      1 C1         -0.1664    1.6648    0.9022 C.3       1 <0>         0.0876
      2 N1         -0.1302    0.2133    0.7069 N.am      1 <0>        -0.7393
      3 C2         -1.2792   -0.4898    0.6643 C.2       1 <0>         0.5106
      4 O1         -2.3432    0.0792    0.7876 O.2       1 <0>        -0.5183
      5 C3         -1.2420   -1.9829    0.4634 C.3       1 <0>         0.0361
      6 N2         -2.6132   -2.5100    0.4542 N.3       1 <0>        -0.5225
      7 C4         -3.2494   -2.3446    1.7673 C.3       1 <0>         0.0562
      8 C5         -4.7173   -2.7690    1.6815 C.3       1 <0>        -0.1218
      9 C6         -4.7953   -4.2320    1.2363 C.3       1 <0>         0.1601
     10 C7         -4.0834   -4.3862   -0.1105 C.3       1 <0>        -0.1244
     11 C8         -2.6340   -3.9149    0.0273 C.3       1 <0>         0.0605
     12 N3         -6.1992   -4.6268    1.0961 N.pl3     1 <0>        -0.6879
     13 C9         -6.5592   -5.9585    1.2164 C.ar      1 <0>         0.5738
     14 N4         -5.6207   -6.8607    1.4638 N.ar      1 <0>        -0.5616
     15 C10        -5.9233   -8.1446    1.5865 C.ar      1 <0>         0.2118
     16 C11        -7.2399   -8.5452    1.4536 C.ar      1 <0>        -0.2075
     17 C12        -8.2103   -7.5698    1.1923 C.ar      1 <0>         0.3238
     18 N5         -7.8322   -6.2960    1.0866 N.ar      1 <0>        -0.5503
     19 C13        -9.6324   -7.9463    1.0416 C.2       1 <0>        -0.1569
     20 C14       -10.3506   -8.7505    1.8669 C.2       1 <0>         0.1132
     21 N6        -11.6259   -8.8647    1.4037 N.pl3     1 <0>        -0.5831
     22 H1        -12.3248   -9.3879    1.8265 H         1 <0>         0.4216
     23 C15       -11.7812   -8.1297    0.2478 C.ar      1 <0>         0.0900
     24 C16       -10.5474   -7.5171   -0.0293 C.ar      1 <0>        -0.0688
     25 C17       -10.4103   -6.6988   -1.1488 C.ar      1 <0>        -0.0650
     26 C18       -11.4903   -6.4917   -1.9783 C.ar      1 <0>        -0.1400
     27 C19       -12.7101   -7.0931   -1.7037 C.ar      1 <0>        -0.0981
     28 C20       -12.8580   -7.9119   -0.6054 C.ar      1 <0>        -0.1265
     29 Cl1        -7.6797  -10.2176    1.6064 Cl        1 <0>        -0.0473
     30 H2          0.8510    2.0559    0.9090 H         1 <0>         0.0756
     31 H3         -0.7278    2.1267    0.0901 H         1 <0>         0.0605
     32 H4         -0.6492    1.8916    1.8527 H         1 <0>         0.0594
     33 H5          0.7208   -0.2418    0.6083 H         1 <0>         0.4017
     34 H6         -0.7592   -2.2097   -0.4871 H         1 <0>         0.1062
     35 H7         -0.6806   -2.4449    1.2755 H         1 <0>         0.0653
     36 H8         -2.7344   -2.9647    2.5011 H         1 <0>         0.0322
     37 H9         -3.1907   -1.2992    2.0702 H         1 <0>         0.0987
     38 H10        -5.1851   -2.6609    2.6600 H         1 <0>         0.0742
     39 H11        -5.2361   -2.1403    0.9579 H         1 <0>         0.0806
     40 H12        -4.3104   -4.8652    1.9793 H         1 <0>         0.0903
     41 H13        -4.0985   -5.4335   -0.4123 H         1 <0>         0.0742
     42 H14        -4.5923   -3.7829   -0.8623 H         1 <0>         0.0739
     43 H15        -2.1283   -4.0100   -0.9336 H         1 <0>         0.0798
     44 H16        -2.1219   -4.5276    0.7692 H         1 <0>         0.0393
     45 H17        -6.8764   -3.9554    0.9190 H         1 <0>         0.4155
     46 H18        -5.1496   -8.8707    1.7878 H         1 <0>         0.1753
     47 H19        -9.9678   -9.2281    2.7567 H         1 <0>         0.1765
     48 H20        -9.4621   -6.2290   -1.3649 H         1 <0>         0.1214
     49 H21       -11.3872   -5.8577   -2.8465 H         1 <0>         0.1244
     50 H22       -13.5500   -6.9235   -2.3611 H         1 <0>         0.1271
     51 H23       -13.8125   -8.3735   -0.3998 H         1 <0>         0.1220
@<TRIPOS>BOND
     1    1    2 1
     2    1   30 1
     3    1   31 1
     4    1   32 1
     5    2    3 am
     6    2   33 1
     7    3    4 2
     8    3    5 1
     9    5    6 1
    10    5   34 1
    11    5   35 1
    12    6   11 1
    13    6    7 1
    14    7    8 1
    15    7   36 1
    16    7   37 1
    17    8    9 1
    18    8   38 1
    19    8   39 1
    20    9   10 1
    21    9   12 1
    22    9   40 1
    23   10   11 1
    24   10   41 1
    25   10   42 1
    26   11   43 1
    27   11   44 1
    28   12   13 1
    29   12   45 1
    30   13   18 ar
    31   13   14 ar
    32   14   15 ar
    33   15   16 ar
    34   15   46 1
    35   16   17 ar
    36   16   29 1
    37   17   18 ar
    38   17   19 1
    39   19   24 1
    40   19   20 2
    41   20   21 1
    42   20   47 1
    43   21   22 1
    44   21   23 1
    45   23   28 ar
    46   23   24 ar
    47   24   25 ar
    48   25   26 ar
    49   25   48 1
    50   26   27 ar
    51   26   49 1
    52   27   28 ar
    53   27   50 1
    54   28   51 1
@<TRIPOS>MOLECULE
CHEMBL250199
   46    49     0     0     0
SMALL
USER_CHARGES

@<TRIPOS>ATOM
      1 C1          0.4391    2.2292   -1.8471 C.3       1 <0>        -0.6758
      2 S1          0.3519    0.9500   -0.5639 S.o2      1 <0>         2.5598
      3 O1          1.2539    1.2531    0.4915 O.2       1 <0>        -0.9178
      4 O2         -1.0037    0.6255   -0.2876 O.2       1 <0>        -0.8922
      5 N1          0.9752   -0.4095   -1.2751 N.pl3     1 <0>        -1.2552
      6 C2          2.3160   -0.7452   -1.0829 C.ar      1 <0>         0.1323
      7 C3          2.8605   -0.7236    0.1962 C.ar      1 <0>        -0.0884
      8 C4          4.1847   -1.0545    0.3883 C.ar      1 <0>        -0.0886
      9 C5          4.9783   -1.4114   -0.7014 C.ar      1 <0>        -0.0347
     10 C6          4.4299   -1.4328   -1.9833 C.ar      1 <0>        -0.0898
     11 C7          3.1038   -1.1062   -2.1701 C.ar      1 <0>        -0.1125
     12 C8          6.4032   -1.7672   -0.4973 C.ar      1 <0>        -0.0887
     13 C9          7.2030   -2.1190   -1.5815 C.ar      1 <0>        -0.0521
     14 C10         8.5374   -2.4451   -1.3340 C.ar      1 <0>        -0.0733
     15 C11         9.0286   -2.4085   -0.0081 C.ar      1 <0>         0.1432
     16 C12        10.3807   -2.7389    0.2464 C.ar      1 <0>        -0.0728
     17 C13        11.2222   -3.0906   -0.7483 C.ar      1 <0>        -0.0933
     18 C14        10.7894   -3.1450   -2.0904 C.ar      1 <0>        -0.0137
     19 C15         9.4486   -2.8268   -2.4143 C.ar      1 <0>        -0.0933
     20 C16         9.0440   -2.8881   -3.7472 C.ar      1 <0>         0.1321
     21 N2          9.9042   -3.2378   -4.6801 N.ar      1 <0>        -0.4796
     22 C17        11.1632   -3.5413   -4.4094 C.ar      1 <0>         0.0909
     23 C18        11.6523   -3.5092   -3.1350 C.ar      1 <0>        -0.1496
     24 N3          8.2159   -2.0637    0.9934 N.ar      1 <0>        -0.4626
     25 C19         6.9608   -1.7474    0.7876 C.ar      1 <0>         0.1353
     26 S2          0.0074   -1.3705   -2.2143 S.o2      1 <0>         2.5598
     27 O3          0.6659   -2.6293   -2.2442 O.2       1 <0>        -0.9121
     28 O4         -1.2891   -1.2444   -1.6466 O.2       1 <0>        -0.8922
     29 C20         0.0464   -0.6058   -3.8588 C.3       1 <0>        -0.6795
     30 H1          1.4526    2.2755   -2.2456 H         1 <0>         0.1407
     31 H2         -0.2564    1.9860   -2.6504 H         1 <0>         0.1311
     32 H3          0.1735    3.1946   -1.4164 H         1 <0>         0.1483
     33 H4          2.2455   -0.4471    1.0398 H         1 <0>         0.1555
     34 H5          4.6075   -1.0369    1.3820 H         1 <0>         0.1411
     35 H6          5.0427   -1.7089   -2.8287 H         1 <0>         0.1374
     36 H7          2.6776   -1.1269   -3.1622 H         1 <0>         0.1289
     37 H8          6.8025   -2.1393   -2.5843 H         1 <0>         0.1456
     38 H9         10.7483   -2.7086    1.2615 H         1 <0>         0.1428
     39 H10        12.2474   -3.3350   -0.5126 H         1 <0>         0.1412
     40 H11         8.0251   -2.6489   -4.0140 H         1 <0>         0.1611
     41 H12        11.8218   -3.8215   -5.2182 H         1 <0>         0.1593
     42 H13        12.6835   -3.7601   -2.9349 H         1 <0>         0.1446
     43 H14         6.3415   -1.4702    1.6278 H         1 <0>         0.1671
     44 H15         1.0726   -0.5857   -4.2259 H         1 <0>         0.1398
     45 H16        -0.5731   -1.1849   -4.5436 H         1 <0>         0.1491
     46 H17        -0.3367    0.4126   -3.7952 H         1 <0>         0.1311
@<TRIPOS>BOND
     1    1    2 1
     2    1   30 1
     3    1   31 1
     4    1   32 1
     5    2    3 2
     6    2    4 2
     7    2    5 1
     8    5    6 1
     9    5   26 1
    10    6   11 ar
    11    6    7 ar
    12    7    8 ar
    13    7   33 1
    14    8    9 ar
    15    8   34 1
    16    9   10 ar
    17    9   12 1
    18   10   11 ar
    19   10   35 1
    20   11   36 1
    21   12   25 ar
    22   12   13 ar
    23   13   14 ar
    24   13   37 1
    25   14   19 ar
    26   14   15 ar
    27   15   16 ar
    28   15   24 ar
    29   16   17 ar
    30   16   38 1
    31   17   18 ar
    32   17   39 1
    33   18   23 ar
    34   18   19 ar
    35   19   20 ar
    36   20   21 ar
    37   20   40 1
    38   21   22 ar
    39   22   23 ar
    40   22   41 1
    41   23   42 1
    42   24   25 ar
    43   25   43 1
    44   26   27 2
    45   26   28 2
    46   26   29 1
    47   29   44 1
    48   29   45 1
    49   29   46 1
@<TRIPOS>MOLECULE
CHEMBL378627
   55    56     0     0     0
SMALL
USER_CHARGES

@<TRIPOS>ATOM
      1 C1         -5.3208   -6.2757   -1.4967 C.3       1 <0>        -0.1522
      2 C2         -4.2094   -5.4007   -2.0798 C.3       1 <0>         0.0796
      3 C3         -4.4706   -5.1700   -3.5696 C.3       1 <0>        -0.1620
      4 O1         -4.1864   -4.1439   -1.4000 O.3       1 <0>        -0.2915
      5 C4         -2.9883   -3.5191   -1.3028 C.ar      1 <0>         0.4436
      6 C5         -2.8990   -2.2849   -0.6420 C.ar      1 <0>        -0.2161
      7 C6         -1.6421   -1.6514   -0.5522 C.ar      1 <0>         0.3542
      8 C7         -0.5443   -2.2835   -1.1259 C.ar      1 <0>        -0.3273
      9 C8         -0.7189   -3.5041   -1.7616 C.ar      1 <0>         0.4661
     10 N1         -1.9125   -4.0798   -1.8264 N.ar      1 <0>        -0.5643
     11 N2          0.3777   -4.1383   -2.3362 N.am      1 <0>        -0.6584
     12 C9          0.2424   -5.3700   -2.8664 C.2       1 <0>         0.5097
     13 O2         -0.8527   -5.8876   -2.9259 O.2       1 <0>        -0.4485
     14 C10         1.4519   -6.1041   -3.3853 C.3       1 <0>        -0.1007
     15 C11         1.0320   -7.4485   -3.9212 C.ar      1 <0>        -0.0093
     16 C12         1.1025   -8.5669   -3.1132 C.ar      1 <0>        -0.1733
     17 C13         0.7156   -9.8040   -3.6062 C.ar      1 <0>         0.1868
     18 C14         0.2578   -9.9185   -4.9106 C.ar      1 <0>        -0.6497
     19 C15         0.1873   -8.8005   -5.7184 C.ar      1 <0>        -0.0768
     20 C16         0.5694   -7.5621   -5.2236 C.ar      1 <0>         0.0956
     21 O3          0.4947   -6.4603   -6.0171 O.3       1 <0>        -0.3115
     22 C17         0.0090   -6.6507   -7.3475 C.3       1 <0>         0.0218
     23 S1         -0.2332  -11.4904   -5.5372 S.o2      1 <0>         2.5044
     24 O4         -1.1425  -11.9981   -4.5705 O.2       1 <0>        -0.9229
     25 O5         -0.6598  -11.2331   -6.8680 O.2       1 <0>        -0.9429
     26 C18         1.2852  -12.4828   -5.5486 C.3       1 <0>        -0.6472
     27 O6          0.7854  -10.9049   -2.8110 O.3       1 <0>        -0.3136
     28 C19         1.2666  -10.7137   -1.4791 C.3       1 <0>         0.0242
     29 N3         -1.5047   -0.4307    0.0908 N.pl3     1 <0>        -0.8429
     30 C20        -4.0632   -1.6787   -0.0695 C.1       1 <0>         0.2723
     31 N4         -4.9868   -1.1979    0.3848 N.1       1 <0>        -0.4276
     32 H1         -5.3383   -7.2343   -2.0152 H         1 <0>         0.0799
     33 H2         -5.1347   -6.4400   -0.4353 H         1 <0>         0.0625
     34 H3         -6.2811   -5.7761   -1.6241 H         1 <0>         0.0641
     35 H4         -3.2490   -5.9003   -1.9524 H         1 <0>         0.1066
     36 H5         -5.4309   -4.6704   -3.6970 H         1 <0>         0.0577
     37 H6         -3.6788   -4.5466   -3.9850 H         1 <0>         0.0618
     38 H7         -4.4881   -6.1286   -4.0881 H         1 <0>         0.0716
     39 H8          0.4341   -1.8287   -1.0774 H         1 <0>         0.1460
     40 H9          1.2398   -3.6941   -2.3554 H         1 <0>         0.4218
     41 H10         1.9148   -5.5234   -4.1832 H         1 <0>         0.1187
     42 H11         2.1677   -6.2433   -2.5751 H         1 <0>         0.1119
     43 H12         1.4592   -8.4778   -2.0977 H         1 <0>         0.1444
     44 H13        -0.1684   -8.8897   -6.7342 H         1 <0>         0.1578
     45 H14         0.0001   -5.6949   -7.8713 H         1 <0>         0.1042
     46 H15         0.6592   -7.3483   -7.8753 H         1 <0>         0.0595
     47 H16        -1.0029   -7.0542   -7.3105 H         1 <0>         0.0602
     48 H17         1.6779  -12.5577   -4.5345 H         1 <0>         0.1355
     49 H18         1.0642  -13.4807   -5.9273 H         1 <0>         0.1332
     50 H19         2.0259  -12.0062   -6.1907 H         1 <0>         0.1297
     51 H20         0.6157  -10.0143   -0.9545 H         1 <0>         0.0634
     52 H21         1.2719  -11.6689   -0.9541 H         1 <0>         0.1096
     53 H22         2.2794  -10.3121   -1.5129 H         1 <0>         0.0613
     54 H23        -2.2791   -0.0009    0.4862 H         1 <0>         0.4073
     55 H24        -0.6341   -0.0064    0.1451 H         1 <0>         0.4116
@<TRIPOS>BOND
     1    1    2 1
     2    1   32 1
     3    1   33 1
     4    1   34 1
     5    2    3 1
     6    2    4 1
     7    2   35 1
     8    3   36 1
     9    3   37 1
    10    3   38 1
    11    4    5 1
    12    5   10 ar
    13    5    6 ar
    14    6    7 ar
    15    6   30 1
    16    7    8 ar
    17    7   29 1
    18    8    9 ar
    19    8   39 1
    20    9   10 ar
    21    9   11 1
    22   11   12 am
    23   11   40 1
    24   12   13 2
    25   12   14 1
    26   14   15 1
    27   14   41 1
    28   14   42 1
    29   15   20 ar
    30   15   16 ar
    31   16   17 ar
    32   16   43 1
    33   17   18 ar
    34   17   27 1
    35   18   19 ar
    36   18   23 1
    37   19   20 ar
    38   19   44 1
    39   20   21 1
    40   21   22 1
    41   22   45 1
    42   22   46 1
    43   22   47 1
    44   23   24 2
    45   23   25 2
    46   23   26 1
    47   26   48 1
    48   26   49 1
    49   26   50 1
    50   27   28 1
    51   28   51 1
    52   28   52 1
    53   28   53 1
    54   29   54 1
    55   29   55 1
    56   30   31 3
@<TRIPOS>MOLECULE
CHEMBL424815
   55    58     0     0     0
SMALL
USER_CHARGES

@<TRIPOS>ATOM
      1 C1         -0.0178    1.4648    0.0101 C.3       1 <0>        -0.0459
      2 N1          0.0021   -0.0041    0.0020 N.4       1 <0>        -0.3886
      3 C2         -1.3761   -0.5122    0.0107 C.3       1 <0>        -0.0026
      4 C3         -1.3560   -2.0421   -0.0167 C.3       1 <0>         0.0249
      5 N2         -0.6244   -2.5407    1.1564 N.3       1 <0>        -0.5393
      6 C4          0.7499   -2.0201    1.1745 C.3       1 <0>         0.0196
      7 C5          0.7125   -0.4904    1.1921 C.3       1 <0>        -0.0027
      8 C6         -0.6316   -4.0091    1.1963 C.3       1 <0>         0.0590
      9 C7         -0.0856   -4.4853    2.5439 C.3       1 <0>        -0.1315
     10 C8         -0.0931   -6.0148    2.5855 C.3       1 <0>         0.1413
     11 N3          0.4297   -6.4708    3.8758 N.pl3     1 <0>        -0.7054
     12 C9          0.5192   -7.8251    4.1467 C.ar      1 <0>         0.5798
     13 N4          0.1321   -8.6948    3.2244 N.ar      1 <0>        -0.5804
     14 C10         0.2017  -10.0007    3.4431 C.ar      1 <0>         0.2043
     15 C11         0.6851  -10.4591    4.6512 C.ar      1 <0>        -0.2787
     16 C12         1.0880   -9.5176    5.6099 C.ar      1 <0>         0.3147
     17 N5          0.9940   -8.2182    5.3177 N.ar      1 <0>        -0.6075
     18 C13         1.6110   -9.9556    6.9160 C.2       1 <0>        -0.1387
     19 C14         2.0087   -9.0089    7.8616 C.2       1 <0>         0.2603
     20 N6          1.9862   -7.6460    7.7705 N.pl3     1 <0>        -0.6086
     21 C15         2.4275   -6.8704    8.8271 C.ar      1 <0>         0.1229
     22 C16         2.4725   -5.4672    8.8984 C.ar      1 <0>        -0.1213
     23 C17         2.9411   -4.8324   10.0234 C.ar      1 <0>        -0.0770
     24 C18         3.3833   -5.5502   11.1219 C.ar      1 <0>        -0.1176
     25 C19         3.3505   -6.9330   11.0808 C.ar      1 <0>        -0.0368
     26 C20         2.8821   -7.5687    9.9554 C.ar      1 <0>        -0.1568
     27 S1          2.6683   -9.2724    9.4996 S.3       1 <0>         0.0839
     28 C21         1.7114  -11.3524    7.2152 C.1       1 <0>         0.2715
     29 N7          1.7910  -12.4605    7.4525 N.1       1 <0>        -0.4086
     30 H1          1.0047    1.8421    0.0024 H         1 <0>         0.1243
     31 H2         -0.5450    1.8259   -0.8730 H         1 <0>         0.1247
     32 H3         -0.5280    1.8163    0.9069 H         1 <0>         0.1232
     33 H4         -1.8832   -0.1716    0.9134 H         1 <0>         0.1378
     34 H5         -1.9060   -0.1400   -0.8661 H         1 <0>         0.1365
     35 H6         -2.3783   -2.4196    0.0047 H         1 <0>         0.1249
     36 H7         -0.8610   -2.3831   -0.9260 H         1 <0>         0.0619
     37 H8          1.2641   -2.3816    2.0650 H         1 <0>         0.1245
     38 H9          1.2796   -2.3607    0.2848 H         1 <0>         0.0618
     39 H10         1.7310   -0.1020    1.1912 H         1 <0>         0.1356
     40 H11         0.1947   -0.1499    2.0888 H         1 <0>         0.1375
     41 H12        -1.6519   -4.3710    1.0694 H         1 <0>         0.0942
     42 H13        -0.0057   -4.3975    0.3929 H         1 <0>         0.0524
     43 H14         0.9347   -4.1235    2.6709 H         1 <0>         0.0696
     44 H15        -0.7115   -4.0969    3.3473 H         1 <0>         0.0835
     45 H16        -1.1134   -6.3766    2.4585 H         1 <0>         0.0711
     46 H17         0.5328   -6.4032    1.7821 H         1 <0>         0.0680
     47 H18         0.7132   -5.8235    4.5404 H         1 <0>         0.4091
     48 H19        -0.1174  -10.6986    2.6832 H         1 <0>         0.1714
     49 H20         0.7515  -11.5178    4.8541 H         1 <0>         0.1443
     50 H21         1.6600   -7.2209    6.9619 H         1 <0>         0.4310
     51 H22         2.1344   -4.8800    8.0574 H         1 <0>         0.1304
     52 H23         2.9654   -3.7530   10.0512 H         1 <0>         0.1384
     53 H24         3.7494   -5.0375   11.9992 H         1 <0>         0.1442
     54 H25         3.6909   -7.5097   11.9281 H         1 <0>         0.1427
     55 H26         0.4748   -0.3293   -0.8280 H         1 <0>         0.4227
@<TRIPOS>BOND
     1    1    2 1
     2    1   30 1
     3    1   31 1
     4    1   32 1
     5    2    7 1
     6    2    3 1
     7    2   55 1
     8    3    4 1
     9    3   33 1
    10    3   34 1
    11    4    5 1
    12    4   35 1
    13    4   36 1
    14    5    6 1
    15    5    8 1
    16    6    7 1
    17    6   37 1
    18    6   38 1
    19    7   39 1
    20    7   40 1
    21    8    9 1
    22    8   41 1
    23    8   42 1
    24    9   10 1
    25    9   43 1
    26    9   44 1
    27   10   11 1
    28   10   45 1
    29   10   46 1
    30   11   12 1
    31   11   47 1
    32   12   17 ar
    33   12   13 ar
    34   13   14 ar
    35   14   15 ar
    36   14   48 1
    37   15   16 ar
    38   15   49 1
    39   16   17 ar
    40   16   18 1
    41   18   19 2
    42   18   28 1
    43   19   27 1
    44   19   20 1
    45   20   21 1
    46   20   50 1
    47   21   26 ar
    48   21   22 ar
    49   22   23 ar
    50   22   51 1
    51   23   24 ar
    52   23   52 1
    53   24   25 ar
    54   24   53 1
    55   25   26 ar
    56   25   54 1
    57   26   27 1
    58   28   29 3
@<TRIPOS>MOLECULE
CHEMBL424815__1
   55    58     0     0     0
SMALL
USER_CHARGES

@<TRIPOS>ATOM
      1 C1         -0.0178    1.4648    0.0101 C.3       1 <0>         0.0193
      2 N1          0.0021   -0.0041    0.0020 N.3       1 <0>        -0.5437
      3 C2         -1.3607   -0.5489   -0.0764 C.3       1 <0>         0.0239
      4 C3         -1.2932   -2.0762   -0.1426 C.3       1 <0>        -0.0019
      5 N2         -0.6107   -2.5886    1.0529 N.4       1 <0>        -0.3861
      6 C4          0.7570   -2.0553    1.1043 C.3       1 <0>        -0.0073
      7 C5          0.7065   -0.5278    1.1808 C.3       1 <0>         0.0246
      8 C6         -0.5621   -4.0557    0.9977 C.3       1 <0>        -0.0034
      9 C7          0.0360   -4.5955    2.2984 C.3       1 <0>        -0.1650
     10 C8          0.0866   -6.1236    2.2409 C.3       1 <0>         0.1472
     11 N3          0.6594   -6.6404    3.4863 N.pl3     1 <0>        -0.7077
     12 C9          0.8063   -8.0049    3.6666 C.ar      1 <0>         0.5780
     13 N4          0.4282   -8.8282    2.6991 N.ar      1 <0>        -0.5824
     14 C10         0.5520  -10.1417    2.8310 C.ar      1 <0>         0.2010
     15 C11         1.0834  -10.6573    3.9951 C.ar      1 <0>        -0.2747
     16 C12         1.4755   -9.7640    5.0032 C.ar      1 <0>         0.3126
     17 N5          1.3256   -8.4532    4.7982 N.ar      1 <0>        -0.5806
     18 C13         2.0482  -10.2639    6.2655 C.2       1 <0>        -0.1407
     19 C14         2.4346   -9.3649    7.2609 C.2       1 <0>         0.2474
     20 N6          2.9843   -9.6261    8.4840 N.pl3     1 <0>        -0.6269
     21 C15         3.3022   -8.5876    9.3404 C.ar      1 <0>         0.1179
     22 C16         3.8684   -8.6795   10.6238 C.ar      1 <0>        -0.1174
     23 C17         4.1290   -7.5507   11.3627 C.ar      1 <0>        -0.0771
     24 C18         3.8443   -6.2881   10.8704 C.ar      1 <0>        -0.1161
     25 C19         3.2868   -6.1664    9.6098 C.ar      1 <0>        -0.0412
     26 C20         3.0255   -7.2955    8.8702 C.ar      1 <0>        -0.1873
     27 S1          2.3429   -7.5819    7.2552 S.3       1 <0>         0.1724
     28 C21         2.2083  -11.6720    6.4710 C.1       1 <0>         0.2658
     29 N7          2.3353  -12.7890    6.6341 N.1       1 <0>        -0.4158
     30 H1          1.0047    1.8421    0.0024 H         1 <0>         0.0845
     31 H2         -0.5450    1.8259   -0.8730 H         1 <0>         0.0842
     32 H3         -0.5280    1.8163    0.9069 H         1 <0>         0.0396
     33 H4         -1.9242   -0.2477    0.8067 H         1 <0>         0.0605
     34 H5         -1.8539   -0.1676   -0.9705 H         1 <0>         0.1243
     35 H6         -2.3035   -2.4830   -0.1865 H         1 <0>         0.1372
     36 H7         -0.7413   -2.3773   -1.0330 H         1 <0>         0.1390
     37 H8          1.2666   -2.4465    1.9848 H         1 <0>         0.1365
     38 H9          1.2983   -2.3564    0.2075 H         1 <0>         0.1392
     39 H10         1.7215   -0.1310    1.2040 H         1 <0>         0.1236
     40 H11         0.1771   -0.2262    2.0846 H         1 <0>         0.0603
     41 H12        -1.5711   -4.4482    0.8715 H         1 <0>         0.1368
     42 H13         0.0569   -4.3674    0.1563 H         1 <0>         0.1363
     43 H14         1.0451   -4.2031    2.4246 H         1 <0>         0.0943
     44 H15        -0.5829   -4.2839    3.1397 H         1 <0>         0.0941
     45 H16        -0.9224   -6.5160    2.1146 H         1 <0>         0.0767
     46 H17         0.7056   -6.4352    1.3995 H         1 <0>         0.0770
     47 H18         0.9356   -6.0264    4.1846 H         1 <0>         0.4134
     48 H19         0.2397  -10.8015    2.0351 H         1 <0>         0.1712
     49 H20         1.1944  -11.7234    4.1273 H         1 <0>         0.1426
     50 H21         3.1519  -10.5429    8.7529 H         1 <0>         0.4186
     51 H22         4.1016   -9.6507   11.0348 H         1 <0>         0.1333
     52 H23         4.5638   -7.6501   12.3462 H         1 <0>         0.1401
     53 H24         4.0543   -5.4098   11.4628 H         1 <0>         0.1428
     54 H25         3.0582   -5.1899    9.2091 H         1 <0>         0.1386
     55 H26        -1.1152   -2.2999    1.8777 H         1 <0>         0.4205
@<TRIPOS>BOND
     1    1    2 1
     2    1   30 1
     3    1   31 1
     4    1   32 1
     5    2    7 1
     6    2    3 1
     7    3    4 1
     8    3   33 1
     9    3   34 1
    10    4    5 1
    11    4   35 1
    12    4   36 1
    13    5    6 1
    14    5    8 1
    15    5   55 1
    16    6    7 1
    17    6   37 1
    18    6   38 1
    19    7   39 1
    20    7   40 1
    21    8    9 1
    22    8   41 1
    23    8   42 1
    24    9   10 1
    25    9   43 1
    26    9   44 1
    27   10   11 1
    28   10   45 1
    29   10   46 1
    30   11   12 1
    31   11   47 1
    32   12   17 ar
    33   12   13 ar
    34   13   14 ar
    35   14   15 ar
    36   14   48 1
    37   15   16 ar
    38   15   49 1
    39   16   17 ar
    40   16   18 1
    41   18   19 2
    42   18   28 1
    43   19   27 1
    44   19   20 1
    45   20   21 1
    46   20   50 1
    47   21   26 ar
    48   21   22 ar
    49   22   23 ar
    50   22   51 1
    51   23   24 ar
    52   23   52 1
    53   24   25 ar
    54   24   53 1
    55   25   26 ar
    56   25   54 1
    57   26   27 1
    58   28   29 3
@<TRIPOS>MOLECULE
CHEMBL424815__2
   55    58     0     0     0
SMALL
USER_CHARGES

@<TRIPOS>ATOM
      1 C1         -0.0178    1.4648    0.0101 C.3       1 <0>         0.0192
      2 N1          0.0021   -0.0041    0.0020 N.3       1 <0>        -0.5436
      3 C2         -1.3607   -0.5489   -0.0764 C.3       1 <0>         0.0239
      4 C3         -1.2932   -2.0762   -0.1426 C.3       1 <0>        -0.0020
      5 N2         -0.6107   -2.5886    1.0529 N.4       1 <0>        -0.3861
      6 C4          0.7570   -2.0553    1.1043 C.3       1 <0>        -0.0072
      7 C5          0.7065   -0.5278    1.1808 C.3       1 <0>         0.0247
      8 C6         -0.5621   -4.0557    0.9977 C.3       1 <0>        -0.0034
      9 C7          0.0360   -4.5955    2.2984 C.3       1 <0>        -0.1648
     10 C8          0.0866   -6.1236    2.2409 C.3       1 <0>         0.1468
     11 N3          0.6594   -6.6404    3.4863 N.pl3     1 <0>        -0.7094
     12 C9          0.8063   -8.0049    3.6666 C.ar      1 <0>         0.5780
     13 N4          0.4282   -8.8282    2.6991 N.ar      1 <0>        -0.5815
     14 C10         0.5520  -10.1417    2.8310 C.ar      1 <0>         0.2043
     15 C11         1.0834  -10.6573    3.9951 C.ar      1 <0>        -0.2735
     16 C12         1.4755   -9.7640    5.0032 C.ar      1 <0>         0.3169
     17 N5          1.3256   -8.4532    4.7982 N.ar      1 <0>        -0.6057
     18 C13         2.0482  -10.2639    6.2655 C.2       1 <0>        -0.1408
     19 C14         2.4346   -9.3649    7.2609 C.2       1 <0>         0.2611
     20 N6          2.3589   -8.0008    7.2590 N.pl3     1 <0>        -0.6082
     21 C15         2.7982   -7.2777    8.3531 C.ar      1 <0>         0.1207
     22 C16         2.7926   -5.8812    8.5142 C.ar      1 <0>        -0.1211
     23 C17         3.2662   -5.3019    9.6666 C.ar      1 <0>        -0.0767
     24 C18         3.7632   -6.0707   10.7056 C.ar      1 <0>        -0.1158
     25 C19         3.7809   -7.4483   10.5757 C.ar      1 <0>        -0.0362
     26 C20         3.3075   -8.0285    9.4227 C.ar      1 <0>        -0.1565
     27 S1          3.1457   -9.7066    8.8625 S.3       1 <0>         0.0888
     28 C21         2.2083  -11.6720    6.4710 C.1       1 <0>         0.2695
     29 N7          2.3353  -12.7890    6.6341 N.1       1 <0>        -0.4058
     30 H1          1.0047    1.8421    0.0024 H         1 <0>         0.0846
     31 H2         -0.5450    1.8259   -0.8730 H         1 <0>         0.0845
     32 H3         -0.5280    1.8163    0.9069 H         1 <0>         0.0397
     33 H4         -1.9242   -0.2477    0.8067 H         1 <0>         0.0606
     34 H5         -1.8539   -0.1676   -0.9705 H         1 <0>         0.1248
     35 H6         -2.3035   -2.4830   -0.1865 H         1 <0>         0.1375
     36 H7         -0.7413   -2.3773   -1.0330 H         1 <0>         0.1393
     37 H8          1.2666   -2.4465    1.9848 H         1 <0>         0.1356
     38 H9          1.2983   -2.3564    0.2075 H         1 <0>         0.1394
     39 H10         1.7215   -0.1310    1.2040 H         1 <0>         0.1237
     40 H11         0.1771   -0.2262    2.0846 H         1 <0>         0.0602
     41 H12        -1.5711   -4.4482    0.8715 H         1 <0>         0.1372
     42 H13         0.0569   -4.3674    0.1563 H         1 <0>         0.1367
     43 H14         1.0451   -4.2031    2.4246 H         1 <0>         0.0939
     44 H15        -0.5829   -4.2839    3.1397 H         1 <0>         0.0936
     45 H16        -0.9224   -6.5160    2.1146 H         1 <0>         0.0779
     46 H17         0.7056   -6.4352    1.3995 H         1 <0>         0.0782
     47 H18         0.9356   -6.0264    4.1846 H         1 <0>         0.4104
     48 H19         0.2397  -10.8015    2.0351 H         1 <0>         0.1732
     49 H20         1.1944  -11.7234    4.1273 H         1 <0>         0.1462
     50 H21         1.9962   -7.5379    6.4875 H         1 <0>         0.4299
     51 H22         2.4112   -5.2551    7.7211 H         1 <0>         0.1293
     52 H23         3.2510   -4.2264    9.7638 H         1 <0>         0.1390
     53 H24         4.1325   -5.6013   11.6054 H         1 <0>         0.1451
     54 H25         4.1644   -8.0643   11.3756 H         1 <0>         0.1435
     55 H26        -1.1152   -2.2999    1.8777 H         1 <0>         0.4204
@<TRIPOS>BOND
     1    1    2 1
     2    1   30 1
     3    1   31 1
     4    1   32 1
     5    2    7 1
     6    2    3 1
     7    3    4 1
     8    3   33 1
     9    3   34 1
    10    4    5 1
    11    4   35 1
    12    4   36 1
    13    5    6 1
    14    5    8 1
    15    5   55 1
    16    6    7 1
    17    6   37 1
    18    6   38 1
    19    7   39 1
    20    7   40 1
    21    8    9 1
    22    8   41 1
    23    8   42 1
    24    9   10 1
    25    9   43 1
    26    9   44 1
    27   10   11 1
    28   10   45 1
    29   10   46 1
    30   11   12 1
    31   11   47 1
    32   12   17 ar
    33   12   13 ar
    34   13   14 ar
    35   14   15 ar
    36   14   48 1
    37   15   16 ar
    38   15   49 1
    39   16   17 ar
    40   16   18 1
    41   18   19 2
    42   18   28 1
    43   19   27 1
    44   19   20 1
    45   20   21 1
    46   20   50 1
    47   21   26 ar
    48   21   22 ar
    49   22   23 ar
    50   22   51 1
    51   23   24 ar
    52   23   52 1
    53   24   25 ar
    54   24   53 1
    55   25   26 ar
    56   25   54 1
    57   26   27 1
    58   28   29 3
@<TRIPOS>MOLECULE
CHEMBL424815__3
   55    58     0     0     0
SMALL
USER_CHARGES

@<TRIPOS>ATOM
      1 C1         -0.0178    1.4648    0.0101 C.3       1 <0>        -0.0459
      2 N1          0.0021   -0.0041    0.0020 N.4       1 <0>        -0.3886
      3 C2         -1.3761   -0.5122    0.0107 C.3       1 <0>        -0.0026
      4 C3         -1.3560   -2.0421   -0.0167 C.3       1 <0>         0.0250
      5 N2         -0.6244   -2.5407    1.1564 N.3       1 <0>        -0.5392
      6 C4          0.7499   -2.0201    1.1745 C.3       1 <0>         0.0196
      7 C5          0.7125   -0.4904    1.1921 C.3       1 <0>        -0.0028
      8 C6         -0.6316   -4.0091    1.1963 C.3       1 <0>         0.0591
      9 C7         -0.0856   -4.4853    2.5439 C.3       1 <0>        -0.1317
     10 C8         -0.0931   -6.0148    2.5855 C.3       1 <0>         0.1417
     11 N3          0.4297   -6.4708    3.8758 N.pl3     1 <0>        -0.7036
     12 C9          0.5192   -7.8251    4.1467 C.ar      1 <0>         0.5798
     13 N4          0.1321   -8.6948    3.2244 N.ar      1 <0>        -0.5814
     14 C10         0.2017  -10.0007    3.4431 C.ar      1 <0>         0.2010
     15 C11         0.6851  -10.4591    4.6512 C.ar      1 <0>        -0.2800
     16 C12         1.0880   -9.5176    5.6099 C.ar      1 <0>         0.3103
     17 N5          0.9940   -8.2182    5.3177 N.ar      1 <0>        -0.5826
     18 C13         1.6110   -9.9556    6.9160 C.2       1 <0>        -0.1382
     19 C14         2.0087   -9.0089    7.8616 C.2       1 <0>         0.2446
     20 N6          2.5190   -9.2106    9.1127 N.pl3     1 <0>        -0.6280
     21 C15         2.8569   -8.1314    9.9089 C.ar      1 <0>         0.1189
     22 C16         3.3889   -8.1609   11.2097 C.ar      1 <0>        -0.1186
     23 C17         3.6758   -6.9970   11.8814 C.ar      1 <0>        -0.0782
     24 C18         3.4520   -5.7593   11.3023 C.ar      1 <0>        -0.1176
     25 C19         2.9294   -5.6990   10.0225 C.ar      1 <0>        -0.0409
     26 C20         2.6417   -6.8631    9.3500 C.ar      1 <0>        -0.1881
     27 S1          1.9866   -7.2279    7.7395 S.3       1 <0>         0.1761
     28 C21         1.7114  -11.3524    7.2152 C.1       1 <0>         0.2677
     29 N7          1.7910  -12.4605    7.4525 N.1       1 <0>        -0.4187
     30 H1          1.0047    1.8421    0.0024 H         1 <0>         0.1242
     31 H2         -0.5450    1.8259   -0.8730 H         1 <0>         0.1243
     32 H3         -0.5280    1.8163    0.9069 H         1 <0>         0.1232
     33 H4         -1.8832   -0.1716    0.9134 H         1 <0>         0.1377
     34 H5         -1.9060   -0.1400   -0.8661 H         1 <0>         0.1360
     35 H6         -2.3783   -2.4196    0.0047 H         1 <0>         0.1247
     36 H7         -0.8610   -2.3831   -0.9260 H         1 <0>         0.0616
     37 H8          1.2641   -2.3816    2.0650 H         1 <0>         0.1254
     38 H9          1.2796   -2.3607    0.2848 H         1 <0>         0.0616
     39 H10         1.7310   -0.1020    1.1912 H         1 <0>         0.1354
     40 H11         0.1947   -0.1499    2.0888 H         1 <0>         0.1376
     41 H12        -1.6519   -4.3710    1.0694 H         1 <0>         0.0938
     42 H13        -0.0057   -4.3975    0.3929 H         1 <0>         0.0519
     43 H14         0.9347   -4.1235    2.6709 H         1 <0>         0.0701
     44 H15        -0.7115   -4.0969    3.3473 H         1 <0>         0.0840
     45 H16        -1.1134   -6.3766    2.4585 H         1 <0>         0.0699
     46 H17         0.5328   -6.4032    1.7821 H         1 <0>         0.0669
     47 H18         0.7132   -5.8235    4.5404 H         1 <0>         0.4121
     48 H19        -0.1174  -10.6986    2.6832 H         1 <0>         0.1694
     49 H20         0.7515  -11.5178    4.8541 H         1 <0>         0.1407
     50 H21         2.6445  -10.1137    9.4438 H         1 <0>         0.4178
     51 H22         3.5744   -9.1114   11.6878 H         1 <0>         0.1325
     52 H23         4.0833   -7.0486   12.8803 H         1 <0>         0.1391
     53 H24         3.6821   -4.8529   11.8426 H         1 <0>         0.1420
     54 H25         2.7484   -4.7426    9.5544 H         1 <0>         0.1386
     55 H26         0.4748   -0.3293   -0.8280 H         1 <0>         0.4225
@<TRIPOS>BOND
     1    1    2 1
     2    1   30 1
     3    1   31 1
     4    1   32 1
     5    2    7 1
     6    2    3 1
     7    2   55 1
     8    3    4 1
     9    3   33 1
    10    3   34 1
    11    4    5 1
    12    4   35 1
    13    4   36 1
    14    5    6 1
    15    5    8 1
    16    6    7 1
    17    6   37 1
    18    6   38 1
    19    7   39 1
    20    7   40 1
    21    8    9 1
    22    8   41 1
    23    8   42 1
    24    9   10 1
    25    9   43 1
    26    9   44 1
    27   10   11 1
    28   10   45 1
    29   10   46 1
    30   11   12 1
    31   11   47 1
    32   12   17 ar
    33   12   13 ar
    34   13   14 ar
    35   14   15 ar
    36   14   48 1
    37   15   16 ar
    38   15   49 1
    39   16   17 ar
    40   16   18 1
    41   18   19 2
    42   18   28 1
    43   19   27 1
    44   19   20 1
    45   20   21 1
    46   20   50 1
    47   21   26 ar
    48   21   22 ar
    49   22   23 ar
    50   22   51 1
    51   23   24 ar
    52   23   52 1
    53   24   25 ar
    54   24   53 1
    55   25   26 ar
    56   25   54 1
    57   26   27 1
    58   28   29 3
@<TRIPOS>MOLECULE
CHEMBL117120
   38    40     0     0     0
SMALL
USER_CHARGES

@<TRIPOS>ATOM
      1 C1          3.3339   -0.4060   -5.5023 C.ar      1 <0>        -0.1489
      2 C2          3.3643    0.6769   -4.6428 C.ar      1 <0>        -0.0770
      3 C3          3.4932    0.4772   -3.2823 C.ar      1 <0>        -0.1547
      4 C4          3.5923   -0.8130   -2.7776 C.ar      1 <0>         0.1834
      5 C5          3.5615   -1.8984   -3.6436 C.ar      1 <0>        -0.1786
      6 C6          3.4323   -1.6918   -5.0031 C.ar      1 <0>        -0.0758
      7 N1          3.7234   -1.0186   -1.4006 N.pl3     1 <0>        -0.6709
      8 C7          3.6377   -2.2798   -0.8882 C.2       1 <0>         0.5339
      9 C8          4.7658   -2.9019   -0.3405 C.2       1 <0>        -0.3434
     10 C9          4.6278   -4.2167    0.1820 C.2       1 <0>         0.5772
     11 N2          3.4241   -4.8211    0.1350 N.am      1 <0>        -0.6505
     12 C10         2.3592   -4.1980   -0.3977 C.2       1 <0>         0.7092
     13 N3          2.4467   -2.9530   -0.8970 N.am      1 <0>        -0.6335
     14 O1          1.2887   -4.7731   -0.4245 O.2       1 <0>        -0.5168
     15 O2          5.5863   -4.7905    0.6661 O.2       1 <0>        -0.5084
     16 C11         6.0584   -2.2142   -0.3070 C.2       1 <0>         0.5952
     17 O3          6.1341   -1.0443   -0.6345 O.2       1 <0>        -0.5227
     18 N4          7.1641   -2.8767    0.0866 N.am      1 <0>        -0.6569
     19 C12         8.4164   -2.2596    0.0020 C.ar      1 <0>         0.1479
     20 C13         8.5152   -0.8753    0.0578 C.ar      1 <0>        -0.1363
     21 C14         9.7533   -0.2690   -0.0260 C.ar      1 <0>        -0.1020
     22 C15        10.8937   -1.0385   -0.1657 C.ar      1 <0>        -0.1407
     23 C16        10.7987   -2.4170   -0.2216 C.ar      1 <0>        -0.0995
     24 C17         9.5643   -3.0298   -0.1321 C.ar      1 <0>        -0.1500
     25 H1          3.2286   -0.2473   -6.5653 H         1 <0>         0.1263
     26 H2          3.2876    1.6799   -5.0359 H         1 <0>         0.1303
     27 H3          3.5173    1.3234   -2.6116 H         1 <0>         0.1303
     28 H4          3.6387   -2.9029   -3.2544 H         1 <0>         0.1148
     29 H5          3.4082   -2.5354   -5.6770 H         1 <0>         0.1276
     30 H6          3.8753   -0.2644   -0.8099 H         1 <0>         0.4374
     31 H7          7.0915   -3.7816    0.4284 H         1 <0>         0.4236
     32 H8          7.6249   -0.2737    0.1662 H         1 <0>         0.1526
     33 H9          9.8308    0.8073    0.0173 H         1 <0>         0.1237
     34 H10        11.8606   -0.5619   -0.2317 H         1 <0>         0.1214
     35 H11        11.6913   -3.0152   -0.3307 H         1 <0>         0.1253
     36 H12         9.4912   -4.1067   -0.1709 H         1 <0>         0.1244
     37 H13         3.3252   -5.7183    0.4903 H         1 <0>         0.4405
     38 H14         1.6583   -2.5291   -1.2707 H         1 <0>         0.4417
@<TRIPOS>BOND
     1    1    6 ar
     2    1    2 ar
     3    1   25 1
     4    2    3 ar
     5    2   26 1
     6    3    4 ar
     7    3   27 1
     8    4    5 ar
     9    4    7 1
    10    5    6 ar
    11    5   28 1
    12    6   29 1
    13    7    8 1
    14    7   30 1
    15    8   13 1
    16    8    9 2
    17    9   10 1
    18    9   16 1
    19   10   11 am
    20   10   15 2
    21   11   12 am
    22   11   37 1
    23   12   13 am
    24   12   14 2
    25   13   38 1
    26   16   17 2
    27   16   18 am
    28   18   19 1
    29   18   31 1
    30   19   24 ar
    31   19   20 ar
    32   20   21 ar
    33   20   32 1
    34   21   22 ar
    35   21   33 1
    36   22   23 ar
    37   22   34 1
    38   23   24 ar
    39   23   35 1
    40   24   36 1
@<TRIPOS>MOLECULE
CHEMBL399168
   31    33     0     0     0
SMALL
USER_CHARGES

@<TRIPOS>ATOM
      1 C1         -0.0178    1.4608    0.0101 C.3       1 <0>         0.1050
      2 N1          0.0021   -0.0041    0.0020 N.pl3     1 <0>        -0.7006
      3 C2          0.6008   -0.6823   -1.0454 C.ar      1 <0>         0.5685
      4 N2          1.1561    0.0089   -2.0302 N.ar      1 <0>        -0.5573
      5 C3          1.7367   -0.6084   -3.0457 C.ar      1 <0>         0.2019
      6 C4          1.7596   -1.9942   -3.0710 C.ar      1 <0>        -0.2581
      7 C5          1.1695   -2.6858   -2.0250 C.ar      1 <0>         0.2233
      8 N3          0.6098   -2.0070   -1.0370 N.ar      1 <0>        -0.5572
      9 C6          1.1704   -4.1927   -2.0104 C.3       1 <0>         0.1611
     10 C7          2.4243   -4.6884   -2.6009 C.1       1 <0>         0.2128
     11 N4          3.3921   -5.0709   -3.0565 N.1       1 <0>        -0.3805
     12 C8          0.0012   -4.7035   -2.8124 C.2       1 <0>         0.0811
     13 N5         -0.2503   -4.5017   -4.0729 N.2       1 <0>        -0.4855
     14 C9         -1.3386   -5.0178   -4.6803 C.ar      1 <0>         0.0767
     15 C10        -1.7666   -4.9050   -6.0196 C.ar      1 <0>        -0.0524
     16 C11        -2.9125   -5.5121   -6.4335 C.ar      1 <0>        -0.1094
     17 C12        -3.6958   -6.2576   -5.5633 C.ar      1 <0>        -0.0875
     18 C13        -3.3087   -6.3915   -4.2431 C.ar      1 <0>        -0.0659
     19 C14        -2.1538   -5.7827   -3.8155 C.ar      1 <0>        -0.1635
     20 S1         -1.2705   -5.6699   -2.2816 S.3       1 <0>         0.1373
     21 H1          1.0048    1.8381    0.0023 H         1 <0>         0.0610
     22 H2         -0.5450    1.8219   -0.8730 H         1 <0>         0.0602
     23 H3         -0.5280    1.8123    0.9069 H         1 <0>         0.0782
     24 H4         -0.4044   -0.4986    0.7308 H         1 <0>         0.4169
     25 H5          2.1873   -0.0396   -3.8456 H         1 <0>         0.1742
     26 H6          2.2268   -2.5235   -3.8883 H         1 <0>         0.1453
     27 H7          1.0881   -4.5461   -0.9826 H         1 <0>         0.1619
     28 H8         -1.1804   -4.3317   -6.7225 H         1 <0>         0.1352
     29 H9         -3.2199   -5.4109   -7.4639 H         1 <0>         0.1375
     30 H10        -4.6014   -6.7294   -5.9151 H         1 <0>         0.1418
     31 H11        -3.9081   -6.9689   -3.5548 H         1 <0>         0.1380
@<TRIPOS>BOND
     1    1    2 1
     2    1   21 1
     3    1   22 1
     4    1   23 1
     5    2    3 1
     6    2   24 1
     7    3    8 ar
     8    3    4 ar
     9    4    5 ar
    10    5    6 ar
    11    5   25 1
    12    6    7 ar
    13    6   26 1
    14    7    8 ar
    15    7    9 1
    16    9   10 1
    17    9   12 1
    18    9   27 1
    19   10   11 3
    20   12   20 1
    21   12   13 2
    22   13   14 1
    23   14   19 ar
    24   14   15 ar
    25   15   16 ar
    26   15   28 1
    27   16   17 ar
    28   16   29 1
    29   17   18 ar
    30   17   30 1
    31   18   19 ar
    32   18   31 1
    33   19   20 1
@<TRIPOS>MOLECULE
CHEMBL399168__1
   31    33     0     0     0
SMALL
USER_CHARGES

@<TRIPOS>ATOM
      1 C1         -0.0178    1.4608    0.0101 C.3       1 <0>         0.1050
      2 N1          0.0021   -0.0041    0.0020 N.pl3     1 <0>        -0.7007
      3 C2          0.6008   -0.6823   -1.0454 C.ar      1 <0>         0.5685
      4 N2          1.1561    0.0089   -2.0302 N.ar      1 <0>        -0.5573
      5 C3          1.7367   -0.6084   -3.0457 C.ar      1 <0>         0.2019
      6 C4          1.7596   -1.9942   -3.0710 C.ar      1 <0>        -0.2579
      7 C5          1.1695   -2.6858   -2.0250 C.ar      1 <0>         0.2233
      8 N3          0.6098   -2.0070   -1.0370 N.ar      1 <0>        -0.5572
      9 C6          1.1704   -4.1927   -2.0104 C.3       1 <0>         0.1611
     10 C7          1.0401   -4.6968   -3.3873 C.1       1 <0>         0.2128
     11 N4          0.9396   -5.0858   -4.4499 N.1       1 <0>        -0.3805
     12 C8          2.4625   -4.6885   -1.4141 C.2       1 <0>         0.0811
     13 N5          3.6727   -4.4685   -1.8380 N.2       1 <0>        -0.4855
     14 C9          4.7563   -4.9715   -1.2115 C.ar      1 <0>         0.0767
     15 C10         6.1254   -4.8392   -1.5242 C.ar      1 <0>        -0.0525
     16 C11         7.0729   -5.4369   -0.7510 C.ar      1 <0>        -0.1094
     17 C12         6.7325   -6.1916    0.3631 C.ar      1 <0>        -0.0875
     18 C13         5.4010   -6.3438    0.7018 C.ar      1 <0>        -0.0659
     19 C14         4.4371   -5.7445   -0.0722 C.ar      1 <0>        -0.1634
     20 S1          2.6663   -5.6460   -0.0450 S.3       1 <0>         0.1372
     21 H1          1.0048    1.8381    0.0023 H         1 <0>         0.0603
     22 H2         -0.5450    1.8219   -0.8730 H         1 <0>         0.0609
     23 H3         -0.5280    1.8123    0.9069 H         1 <0>         0.0781
     24 H4         -0.4044   -0.4986    0.7308 H         1 <0>         0.4168
     25 H5          2.1873   -0.0396   -3.8456 H         1 <0>         0.1742
     26 H6          2.2268   -2.5235   -3.8883 H         1 <0>         0.1453
     27 H7          0.3329   -4.5507   -1.4117 H         1 <0>         0.1619
     28 H8          6.4244   -4.2590   -2.3847 H         1 <0>         0.1352
     29 H9          8.1148   -5.3214   -1.0109 H         1 <0>         0.1374
     30 H10         7.5023   -6.6569    0.9608 H         1 <0>         0.1418
     31 H11         5.1213   -6.9279    1.5661 H         1 <0>         0.1380
@<TRIPOS>BOND
     1    1    2 1
     2    1   21 1
     3    1   22 1
     4    1   23 1
     5    2    3 1
     6    2   24 1
     7    3    8 ar
     8    3    4 ar
     9    4    5 ar
    10    5    6 ar
    11    5   25 1
    12    6    7 ar
    13    6   26 1
    14    7    8 ar
    15    7    9 1
    16    9   10 1
    17    9   12 1
    18    9   27 1
    19   10   11 3
    20   12   20 1
    21   12   13 2
    22   13   14 1
    23   14   19 ar
    24   14   15 ar
    25   15   16 ar
    26   15   28 1
    27   16   17 ar
    28   16   29 1
    29   17   18 ar
    30   17   30 1
    31   18   19 ar
    32   18   31 1
    33   19   20 1
@<TRIPOS>MOLECULE
CHEMBL195188
   70    75     0     0     0
SMALL
USER_CHARGES

@<TRIPOS>ATOM
      1 C1          2.0674    2.8604   -1.4633 C.ar      1 <0>        -0.0925
      2 C2          3.1739    3.4811   -0.9141 C.ar      1 <0>        -0.1127
      3 C3          4.2413    2.7238   -0.4691 C.ar      1 <0>        -0.1268
      4 C4          4.2021    1.3459   -0.5727 C.ar      1 <0>        -0.1388
      5 C5          3.0953    0.7252   -1.1210 C.ar      1 <0>        -0.1071
      6 C6          2.0285    1.4825   -1.5674 C.ar      1 <0>        -0.1060
      7 C7          5.3662    0.5204   -0.0884 C.3       1 <0>        -0.0983
      8 C8          5.0677   -0.0074    1.3163 C.3       1 <0>         0.0228
      9 H1          4.1105   -0.5288    1.3127 H         1 <0>         0.1547
     10 C9          6.1736   -0.9746    1.7433 C.3       1 <0>         0.0864
     11 N1          5.9294   -1.4197    3.1175 N.pl3     1 <0>        -0.7194
     12 C10         6.8610   -2.2243    3.7636 C.ar      1 <0>         0.4232
     13 C11         8.0269   -2.6071    3.1036 C.ar      1 <0>        -0.1442
     14 C12         8.9319   -3.4149    3.7932 C.ar      1 <0>         0.1030
     15 C13         8.6040   -3.7892    5.1128 C.ar      1 <0>         0.2036
     16 N2          7.4655   -3.3695    5.6493 N.ar      1 <0>        -0.1812
     17 N3          6.6420   -2.6224    5.0094 N.ar      1 <0>        -0.3305
     18 C14         9.5235   -4.6447    5.8936 C.ar      1 <0>        -0.0999
     19 C15         9.9932   -5.8345    5.3627 C.ar      1 <0>        -0.0357
     20 C16        10.8575   -6.6435    6.0908 C.ar      1 <0>        -0.1330
     21 C17        11.2661   -6.2918    7.3421 C.ar      1 <0>        -0.0405
     22 C18        10.8139   -5.0932    7.9200 C.ar      1 <0>        -0.0598
     23 C19         9.9377   -4.2535    7.1899 C.ar      1 <0>        -0.0070
     24 C20         9.4923   -3.0550    7.7651 C.ar      1 <0>        -0.1349
     25 C21         9.9112   -2.7098    9.0145 C.ar      1 <0>        -0.0802
     26 C22        10.7782   -3.5313    9.7317 C.ar      1 <0>        -0.1154
     27 C23        11.2204   -4.7081    9.2095 C.ar      1 <0>        -0.0816
     28 C24        10.1946   -3.8648    3.1601 C.ar      1 <0>        -0.0655
     29 C25        11.4307   -3.6087    3.7614 C.ar      1 <0>        -0.1243
     30 C26        12.5816   -4.0453    3.1379 C.ar      1 <0>         0.1203
     31 N4         12.5258   -4.6949    1.9911 N.ar      1 <0>        -0.4500
     32 C27        11.3808   -4.9569    1.3907 C.ar      1 <0>         0.1166
     33 C28        10.1819   -4.5620    1.9482 C.ar      1 <0>        -0.1407
     34 N5          5.0093    1.1170    2.2598 N.4       1 <0>        -0.3903
     35 C29         6.0940    2.0885    1.9665 C.3       1 <0>        -0.0339
     36 C30         5.5780    3.4005    2.6090 C.3       1 <0>        -0.1424
     37 C31         4.0591    3.3504    2.3254 C.3       1 <0>        -0.1484
     38 C32         3.7433    1.8620    2.0876 C.3       1 <0>        -0.0419
     39 H2          1.2316    3.4518   -1.8069 H         1 <0>         0.1374
     40 H3          3.2045    4.5576   -0.8332 H         1 <0>         0.1368
     41 H4          5.1060    3.2087   -0.0407 H         1 <0>         0.1277
     42 H5          3.0648   -0.3513   -1.2024 H         1 <0>         0.1311
     43 H6          1.1639    0.9976   -1.9961 H         1 <0>         0.1368
     44 H7          5.5234   -0.3187   -0.7661 H         1 <0>         0.1300
     45 H8          6.2635    1.1386   -0.0612 H         1 <0>         0.1104
     46 H9          6.1787   -1.8376    1.0774 H         1 <0>         0.1365
     47 H10         7.1382   -0.4696    1.6910 H         1 <0>         0.1168
     48 H11         5.1176   -1.1530    3.5766 H         1 <0>         0.4191
     49 H12         8.2238   -2.2889    2.0905 H         1 <0>         0.1991
     50 H13         9.6845   -6.1370    4.3729 H         1 <0>         0.1285
     51 H14        11.2111   -7.5673    5.6573 H         1 <0>         0.1425
     52 H15        11.9382   -6.9351    7.8906 H         1 <0>         0.1452
     53 H16         8.8206   -2.4083    7.2201 H         1 <0>         0.1110
     54 H17         9.5666   -1.7860    9.4552 H         1 <0>         0.1295
     55 H18        11.0963   -3.2349   10.7203 H         1 <0>         0.1360
     56 H19        11.8917   -5.3356    9.7770 H         1 <0>         0.1415
     57 H20        11.4838   -3.0767    4.6999 H         1 <0>         0.1443
     58 H21        13.5410   -3.8522    3.5946 H         1 <0>         0.1731
     59 H22        11.3815   -5.4918    0.4524 H         1 <0>         0.1734
     60 H23         9.2479   -4.7839    1.4534 H         1 <0>         0.1450
     61 H24         7.0283    1.7739    2.4315 H         1 <0>         0.1345
     62 H25         6.2205    2.2107    0.8908 H         1 <0>         0.1530
     63 H26         5.7700    3.4061    3.6820 H         1 <0>         0.0991
     64 H27         6.0313    4.2686    2.1305 H         1 <0>         0.1222
     65 H28         3.5013    3.7229    3.1845 H         1 <0>         0.1080
     66 H29         3.8208    3.9344    1.4364 H         1 <0>         0.1120
     67 H30         3.3636    1.7201    1.0758 H         1 <0>         0.1615
     68 H31         3.0080    1.5177    2.8148 H         1 <0>         0.1297
     69 H32         5.0890    0.7808    3.2077 H         1 <0>         0.4112
     70 H33         5.8260   -2.3415    5.4523 H         1 <0>         0.4691
@<TRIPOS>BOND
     1    1    6 ar
     2    1    2 ar
     3    1   39 1
     4    2    3 ar
     5    2   40 1
     6    3    4 ar
     7    3   41 1
     8    4    5 ar
     9    4    7 1
    10    5    6 ar
    11    5   42 1
    12    6   43 1
    13    7    8 1
    14    7   44 1
    15    7   45 1
    16    8    9 1
    17    8   10 1
    18    8   34 1
    19   10   46 1
    20   10   47 1
    21   10   11 1
    22   11   12 1
    23   11   48 1
    24   12   13 ar
    25   12   17 ar
    26   13   49 1
    27   13   14 ar
    28   14   28 1
    29   14   15 ar
    30   15   18 1
    31   15   16 ar
    32   16   17 ar
    33   17   70 1
    34   18   23 ar
    35   18   19 ar
    36   19   20 ar
    37   19   50 1
    38   20   21 ar
    39   20   51 1
    40   21   22 ar
    41   21   52 1
    42   22   27 ar
    43   22   23 ar
    44   23   24 ar
    45   24   25 ar
    46   24   53 1
    47   25   26 ar
    48   25   54 1
    49   26   27 ar
    50   26   55 1
    51   27   56 1
    52   28   33 ar
    53   28   29 ar
    54   29   30 ar
    55   29   57 1
    56   30   31 ar
    57   30   58 1
    58   31   32 ar
    59   32   33 ar
    60   32   59 1
    61   33   60 1
    62   34   38 1
    63   34   35 1
    64   34   69 1
    65   35   36 1
    66   35   61 1
    67   35   62 1
    68   36   37 1
    69   36   63 1
    70   36   64 1
    71   37   38 1
    72   37   65 1
    73   37   66 1
    74   38   67 1
    75   38   68 1
@<TRIPOS>MOLECULE
CHEMBL195188__1
   70    75     0     0     0
SMALL
USER_CHARGES

@<TRIPOS>ATOM
      1 C1          1.3572    2.6977   -0.6190 C.ar      1 <0>        -0.0937
      2 C2          2.5475    3.2967   -0.2513 C.ar      1 <0>        -0.1129
      3 C3          3.6588    2.5193    0.0163 C.ar      1 <0>        -0.1269
      4 C4          3.5796    1.1428   -0.0834 C.ar      1 <0>        -0.1369
      5 C5          2.3890    0.5438   -0.4502 C.ar      1 <0>        -0.1070
      6 C6          1.2782    1.3213   -0.7192 C.ar      1 <0>        -0.1063
      7 C7          4.7913    0.2954    0.2074 C.3       1 <0>        -0.0989
      8 C8          4.7127   -0.2319    1.6415 C.3       1 <0>         0.0246
      9 H1          3.7543   -0.7282    1.7941 H         1 <0>         0.1535
     10 C9          5.8475   -1.2298    1.8810 C.3       1 <0>         0.0899
     11 N1          5.8165   -1.6793    3.2749 N.pl3     1 <0>        -0.7081
     12 C10         6.8191   -2.5117    3.7593 C.ar      1 <0>         0.4037
     13 C11         7.8566   -2.9136    2.9199 C.ar      1 <0>        -0.0905
     14 C12         8.8396   -3.7486    3.4515 C.ar      1 <0>         0.0516
     15 C13         8.7158   -4.1294    4.8042 C.ar      1 <0>         0.2266
     16 N2          7.6872   -3.6901    5.5171 N.ar      1 <0>        -0.2249
     17 N3          6.7906   -2.9183    5.0210 N.ar      1 <0>        -0.2917
     18 C14         9.7267   -5.0136    5.4235 C.ar      1 <0>        -0.1491
     19 C15        10.5553   -4.5355    6.4250 C.ar      1 <0>        -0.0392
     20 C16        11.5078   -5.3606    7.0112 C.ar      1 <0>        -0.1364
     21 C17        11.6535   -6.6576    6.6203 C.ar      1 <0>        -0.0289
     22 C18        10.8339   -7.1844    5.6075 C.ar      1 <0>        -0.0590
     23 C19         9.8539   -6.3597    5.0031 C.ar      1 <0>         0.0011
     24 C20         9.0329   -6.8882    3.9970 C.ar      1 <0>        -0.1449
     25 C21         9.1829   -8.1878    3.6173 C.ar      1 <0>        -0.0684
     26 C22        10.1419   -9.0026    4.2152 C.ar      1 <0>        -0.1123
     27 C23        10.9647   -8.5192    5.1860 C.ar      1 <0>        -0.0786
     28 C24         9.9751   -4.2200    2.6232 C.ar      1 <0>        -0.0485
     29 C25        11.2953   -4.0522    3.0520 C.ar      1 <0>        -0.1294
     30 C26        12.3222   -4.5063    2.2500 C.ar      1 <0>         0.1192
     31 N4         12.0712   -5.0906    1.0943 N.ar      1 <0>        -0.4516
     32 C27        10.8409   -5.2684    0.6530 C.ar      1 <0>         0.1177
     33 C28         9.7550   -4.8498    1.3944 C.ar      1 <0>        -0.1394
     34 N5          4.8392    0.8887    2.5829 N.4       1 <0>        -0.3898
     35 C29         5.8826    1.8362    2.1140 C.3       1 <0>        -0.0330
     36 C30         5.5123    3.1565    2.8352 C.3       1 <0>        -0.1424
     37 C31         3.9667    3.1432    2.8088 C.3       1 <0>        -0.1479
     38 C32         3.5803    1.6638    2.6252 C.3       1 <0>        -0.0408
     39 H2          0.4878    3.3049   -0.8237 H         1 <0>         0.1367
     40 H3          2.6094    4.3722   -0.1735 H         1 <0>         0.1361
     41 H4          4.5889    2.9874    0.3029 H         1 <0>         0.1276
     42 H5          2.3272   -0.5316   -0.5284 H         1 <0>         0.1309
     43 H6          0.3481    0.8533   -1.0061 H         1 <0>         0.1362
     44 H7          4.8227   -0.5441   -0.4872 H         1 <0>         0.1286
     45 H8          5.6924    0.8975    0.0906 H         1 <0>         0.1095
     46 H9          5.7228   -2.0874    1.2198 H         1 <0>         0.1288
     47 H10         6.8037   -0.7487    1.6755 H         1 <0>         0.1090
     48 H11         5.0964   -1.3962    3.8599 H         1 <0>         0.4210
     49 H12         7.8980   -2.5893    1.8906 H         1 <0>         0.1919
     50 H13        10.4606   -3.5110    6.7536 H         1 <0>         0.1352
     51 H14        12.1439   -4.9666    7.7900 H         1 <0>         0.1473
     52 H15        12.4000   -7.2815    7.0891 H         1 <0>         0.1482
     53 H16         8.2849   -6.2680    3.5255 H         1 <0>         0.1110
     54 H17         8.5492   -8.5924    2.8420 H         1 <0>         0.1336
     55 H18        10.2408  -10.0298    3.8966 H         1 <0>         0.1389
     56 H19        11.7045   -9.1618    5.6400 H         1 <0>         0.1439
     57 H20        11.5081   -3.5741    3.9967 H         1 <0>         0.1408
     58 H21        13.3453   -4.3812    2.5726 H         1 <0>         0.1708
     59 H22        10.6812   -5.7519   -0.2995 H         1 <0>         0.1716
     60 H23         8.7502   -5.0027    1.0291 H         1 <0>         0.1427
     61 H24         6.8736    1.4975    2.4162 H         1 <0>         0.1337
     62 H25         5.8308    1.9610    1.0324 H         1 <0>         0.1516
     63 H26         5.8807    3.1521    3.8610 H         1 <0>         0.0989
     64 H27         5.9000    4.0163    2.2887 H         1 <0>         0.1210
     65 H28         3.5689    3.5241    3.7494 H         1 <0>         0.1074
     66 H29         3.5974    3.7372    1.9728 H         1 <0>         0.1109
     67 H30         3.0339    1.5360    1.6908 H         1 <0>         0.1595
     68 H31         2.9685    1.3329    3.4645 H         1 <0>         0.1297
     69 H32         5.0678    0.5458    3.5039 H         1 <0>         0.4157
     70 H33         7.6122   -3.9587    6.4461 H         1 <0>         0.4807
@<TRIPOS>BOND
     1    1    6 ar
     2    1    2 ar
     3    1   39 1
     4    2    3 ar
     5    2   40 1
     6    3    4 ar
     7    3   41 1
     8    4    5 ar
     9    4    7 1
    10    5    6 ar
    11    5   42 1
    12    6   43 1
    13    7    8 1
    14    7   44 1
    15    7   45 1
    16    8    9 1
    17    8   10 1
    18    8   34 1
    19   10   11 1
    20   10   46 1
    21   10   47 1
    22   11   12 1
    23   11   48 1
    24   12   17 ar
    25   12   13 ar
    26   13   14 ar
    27   13   49 1
    28   14   15 ar
    29   14   28 1
    30   15   16 ar
    31   15   18 1
    32   16   17 ar
    33   16   70 1
    34   18   23 ar
    35   18   19 ar
    36   19   20 ar
    37   19   50 1
    38   20   21 ar
    39   20   51 1
    40   21   22 ar
    41   21   52 1
    42   22   27 ar
    43   22   23 ar
    44   23   24 ar
    45   24   25 ar
    46   24   53 1
    47   25   26 ar
    48   25   54 1
    49   26   27 ar
    50   26   55 1
    51   27   56 1
    52   28   33 ar
    53   28   29 ar
    54   29   30 ar
    55   29   57 1
    56   30   31 ar
    57   30   58 1
    58   31   32 ar
    59   32   33 ar
    60   32   59 1
    61   33   60 1
    62   34   38 1
    63   34   35 1
    64   34   69 1
    65   35   36 1
    66   35   61 1
    67   35   62 1
    68   36   37 1
    69   36   63 1
    70   36   64 1
    71   37   38 1
    72   37   65 1
    73   37   66 1
    74   38   67 1
    75   38   68 1
@<TRIPOS>MOLECULE
CHEMBL195188__2
   69    74     0     0     0
SMALL
USER_CHARGES

@<TRIPOS>ATOM
      1 C1          2.0648    2.8618   -1.4587 C.ar      1 <0>        -0.0993
      2 C2          3.1713    3.4826   -0.9098 C.ar      1 <0>        -0.1145
      3 C3          4.2390    2.7255   -0.4651 C.ar      1 <0>        -0.1269
      4 C4          4.2000    1.3476   -0.5688 C.ar      1 <0>        -0.1283
      5 C5          3.0932    0.7268   -1.1168 C.ar      1 <0>        -0.1080
      6 C6          2.0261    1.4839   -1.5628 C.ar      1 <0>        -0.1077
      7 C7          5.3644    0.5224   -0.0849 C.3       1 <0>        -0.1004
      8 C8          5.0664   -0.0056    1.3198 C.3       1 <0>         0.0263
      9 H1          4.1093   -0.5272    1.3165 H         1 <0>         0.1477
     10 C9          6.1727   -0.9726    1.7465 C.3       1 <0>         0.1045
     11 N1          5.9289   -1.4178    3.1208 N.pl3     1 <0>        -0.7370
     12 C10         6.8609   -2.2223    3.7664 C.ar      1 <0>         0.3317
     13 C11         8.0297   -2.6003    3.1079 C.ar      1 <0>        -0.1602
     14 C12         8.9347   -3.4077    3.7971 C.ar      1 <0>         0.0118
     15 C13         8.6045   -3.7867    5.1151 C.ar      1 <0>         0.1001
     16 N2          7.4639   -3.3715    5.6499 N.ar      1 <0>        -0.1759
     17 N3          6.6398   -2.6249    5.0102 N.ar      1 <0>        -0.2876
     18 C14         9.5241   -4.6422    5.8957 C.ar      1 <0>        -0.0431
     19 C15         9.9982   -5.8293    5.3625 C.ar      1 <0>        -0.0761
     20 C16        10.8623   -6.6385    6.0905 C.ar      1 <0>        -0.1202
     21 C17        11.2670   -6.2894    7.3438 C.ar      1 <0>        -0.0806
     22 C18        10.8106   -5.0934    7.9240 C.ar      1 <0>        -0.0530
     23 C19         9.9342   -4.2538    7.1942 C.ar      1 <0>        -0.0220
     24 C20         9.4844   -3.0581    7.7718 C.ar      1 <0>        -0.1057
     25 C21         9.8993   -2.7155    9.0232 C.ar      1 <0>        -0.1069
     26 C22        10.7666   -3.5369    9.7401 C.ar      1 <0>        -0.1141
     27 C23        11.2130   -4.7112    9.2156 C.ar      1 <0>        -0.1005
     28 C24        10.2001   -3.8526    3.1658 C.ar      1 <0>        -0.0183
     29 C25        11.4340   -3.5952    3.7709 C.ar      1 <0>        -0.1387
     30 C26        12.5875   -4.0275    3.1491 C.ar      1 <0>         0.1107
     31 N4         12.5361   -4.6743    2.0006 N.ar      1 <0>        -0.4709
     32 C27        11.3933   -4.9374    1.3965 C.ar      1 <0>         0.1070
     33 C28        10.1921   -4.5462    1.9518 C.ar      1 <0>        -0.1563
     34 N5          5.0081    1.1187    2.2634 N.4       1 <0>        -0.3872
     35 C29         6.0925    2.0904    1.9699 C.3       1 <0>        -0.0308
     36 C30         5.5765    3.4024    2.6127 C.3       1 <0>        -0.1423
     37 C31         4.0575    3.3519    2.3294 C.3       1 <0>        -0.1466
     38 C32         3.7419    1.8635    2.0916 C.3       1 <0>        -0.0407
     39 H2          1.2287    3.4530   -1.8020 H         1 <0>         0.1338
     40 H3          3.2017    4.5591   -0.8288 H         1 <0>         0.1338
     41 H4          5.1037    3.2106   -0.0370 H         1 <0>         0.1278
     42 H5          3.0629   -0.3497   -1.1982 H         1 <0>         0.1312
     43 H6          1.1615    0.9988   -1.9913 H         1 <0>         0.1341
     44 H7          5.5216   -0.3167   -0.7627 H         1 <0>         0.1261
     45 H8          6.2617    1.1407   -0.0579 H         1 <0>         0.1071
     46 H9          6.1777   -1.8355    1.0805 H         1 <0>         0.1111
     47 H10         7.1371   -0.4674    1.6939 H         1 <0>         0.0932
     48 H11         5.1173   -1.1512    3.5802 H         1 <0>         0.4059
     49 H12         8.2281   -2.2787    2.0962 H         1 <0>         0.1512
     50 H13         9.6929   -6.1294    4.3709 H         1 <0>         0.1204
     51 H14        11.2191   -7.5603    5.6554 H         1 <0>         0.1302
     52 H15        11.9390   -6.9328    7.8923 H         1 <0>         0.1337
     53 H16         8.8124   -2.4115    7.2270 H         1 <0>         0.1218
     54 H17         9.5513   -1.7939    9.4658 H         1 <0>         0.1238
     55 H18        11.0813   -3.2429   10.7306 H         1 <0>         0.1272
     56 H19        11.8842   -5.3388    9.7830 H         1 <0>         0.1321
     57 H20        11.4836   -3.0656    4.7108 H         1 <0>         0.1365
     58 H21        13.5454   -3.8335    3.6088 H         1 <0>         0.1629
     59 H22        11.3975   -5.4698    0.4569 H         1 <0>         0.1628
     60 H23         9.2599   -4.7690    1.4540 H         1 <0>         0.1366
     61 H24         7.0270    1.7760    2.4346 H         1 <0>         0.1348
     62 H25         6.2187    2.2128    0.8942 H         1 <0>         0.1475
     63 H26         5.7688    3.4079    3.6855 H         1 <0>         0.0989
     64 H27         6.0295    4.2706    2.1340 H         1 <0>         0.1173
     65 H28         3.4999    3.7243    3.1888 H         1 <0>         0.1047
     66 H29         3.8188    3.9360    1.4406 H         1 <0>         0.1078
     67 H30         3.3619    1.7216    1.0799 H         1 <0>         0.1559
     68 H31         3.0069    1.5190    2.8190 H         1 <0>         0.1278
     69 H32         5.0882    0.7825    3.2114 H         1 <0>         0.4219
@<TRIPOS>BOND
     1    1    6 ar
     2    1    2 ar
     3    1   39 1
     4    2    3 ar
     5    2   40 1
     6    3    4 ar
     7    3   41 1
     8    4    5 ar
     9    4    7 1
    10    5    6 ar
    11    5   42 1
    12    6   43 1
    13    7    8 1
    14    7   44 1
    15    7   45 1
    16    8    9 1
    17    8   10 1
    18    8   34 1
    19   10   11 1
    20   10   46 1
    21   10   47 1
    22   11   12 1
    23   11   48 1
    24   12   17 ar
    25   12   13 ar
    26   13   14 ar
    27   13   49 1
    28   14   15 ar
    29   14   28 1
    30   15   16 ar
    31   15   18 1
    32   16   17 ar
    33   18   23 ar
    34   18   19 ar
    35   19   20 ar
    36   19   50 1
    37   20   21 ar
    38   20   51 1
    39   21   22 ar
    40   21   52 1
    41   22   27 ar
    42   22   23 ar
    43   23   24 ar
    44   24   25 ar
    45   24   53 1
    46   25   26 ar
    47   25   54 1
    48   26   27 ar
    49   26   55 1
    50   27   56 1
    51   28   33 ar
    52   28   29 ar
    53   29   30 ar
    54   29   57 1
    55   30   31 ar
    56   30   58 1
    57   31   32 ar
    58   32   33 ar
    59   32   59 1
    60   33   60 1
    61   34   38 1
    62   34   35 1
    63   34   69 1
    64   35   36 1
    65   35   61 1
    66   35   62 1
    67   36   37 1
    68   36   63 1
    69   36   64 1
    70   37   38 1
    71   37   65 1
    72   37   66 1
    73   38   67 1
    74   38   68 1
@<TRIPOS>MOLECULE
CHEMBL374431
   54    56     0     0     0
SMALL
USER_CHARGES

@<TRIPOS>ATOM
      1 C1         -0.0225    1.8097    0.0120 C.3       1 <0>        -0.6499
      2 S1          0.0021   -0.0041    0.0020 S.o2      1 <0>         2.4976
      3 O1          0.8352   -0.4880    1.0465 O.2       1 <0>        -0.9353
      4 O2         -1.3147   -0.5105   -0.1678 O.2       1 <0>        -0.9353
      5 C2          0.8454   -0.4373   -1.4831 C.ar      1 <0>        -0.6517
      6 C3          0.1346   -0.6126   -2.6557 C.ar      1 <0>        -0.0244
      7 C4          0.7962   -0.9525   -3.8208 C.ar      1 <0>        -0.1185
      8 C5          2.1688   -1.1167   -3.8136 C.ar      1 <0>        -0.0565
      9 C6          2.8797   -0.9405   -2.6412 C.ar      1 <0>        -0.1184
     10 C7          2.2186   -0.5964   -1.4770 C.ar      1 <0>        -0.0243
     11 C8          2.8899   -1.4882   -5.0836 C.3       1 <0>         0.1515
     12 N1          3.2853   -0.2700   -5.7949 N.am      1 <0>        -0.7055
     13 C9          3.9482   -0.3580   -6.9650 C.2       1 <0>         0.5733
     14 O3          4.2180   -1.4477   -7.4300 O.2       1 <0>        -0.5178
     15 C10         4.3483    0.8747   -7.6848 C.ar      1 <0>         0.1838
     16 C11         5.0260    0.7710   -8.8925 C.ar      1 <0>        -0.2187
     17 C12         5.4003    1.9337   -9.5659 C.ar      1 <0>         0.3298
     18 C13         5.0718    3.1733   -8.9868 C.ar      1 <0>        -0.1683
     19 C14         4.3847    3.1889   -7.7620 C.ar      1 <0>         0.4159
     20 N2          4.0477    2.0614   -7.1663 N.ar      1 <0>        -0.5590
     21 O4          4.0605    4.3733   -7.1895 O.3       1 <0>        -0.2920
     22 C15         3.3620    4.3222   -5.9439 C.3       1 <0>         0.0759
     23 C16         3.0846    5.7455   -5.4559 C.3       1 <0>        -0.0958
     24 C17         4.4079    6.4407   -5.0746 C.3       1 <0>        -0.1184
     25 C18         4.0450    7.2939   -3.8339 C.3       1 <0>        -0.1276
     26 C19         3.0556    6.3805   -3.0685 C.3       1 <0>        -0.1254
     27 C20         2.2248    5.7072   -4.1804 C.3       1 <0>        -0.1157
     28 C21         5.4323    4.3982   -9.6351 C.1       1 <0>         0.2638
     29 N3          5.7183    5.3699  -10.1494 N.1       1 <0>        -0.4087
     30 N4          6.0783    1.8698  -10.7734 N.pl3     1 <0>        -0.8368
     31 H1          1.0001    2.1870    0.0043 H         1 <0>         0.1320
     32 H2         -0.5497    2.1708   -0.8711 H         1 <0>         0.1320
     33 H3         -0.5327    2.1613    0.9088 H         1 <0>         0.1344
     34 H4         -0.9378   -0.4844   -2.6614 H         1 <0>         0.1454
     35 H5          0.2407   -1.0902   -4.7367 H         1 <0>         0.1368
     36 H6          3.9520   -1.0690   -2.6355 H         1 <0>         0.1368
     37 H7          2.7745   -0.4551   -0.5619 H         1 <0>         0.1454
     38 H8          3.7781   -2.0711   -4.8398 H         1 <0>         0.0877
     39 H9          2.2292   -2.0804   -5.7167 H         1 <0>         0.0877
     40 H10         3.0699    0.5999   -5.4237 H         1 <0>         0.4138
     41 H11         5.2610   -0.1989   -9.3054 H         1 <0>         0.1612
     42 H12         2.4182    3.7937   -6.0781 H         1 <0>         0.0724
     43 H13         3.9706    3.7976   -5.2073 H         1 <0>         0.0738
     44 H14         2.5741    6.3137   -6.2335 H         1 <0>         0.0835
     45 H15         5.1677    5.7016   -4.8204 H         1 <0>         0.0673
     46 H16         4.7522    7.0785   -5.8888 H         1 <0>         0.0682
     47 H17         4.9305    7.4949   -3.2309 H         1 <0>         0.0676
     48 H18         3.5605    8.2234   -4.1326 H         1 <0>         0.0680
     49 H19         3.5969    5.6316   -2.4903 H         1 <0>         0.0664
     50 H20         2.4129    6.9743   -2.4186 H         1 <0>         0.0674
     51 H21         1.2973    6.2575   -4.3387 H         1 <0>         0.0711
     52 H22         2.0051    4.6746   -3.9091 H         1 <0>         0.0678
     53 H23         6.2986    1.0083  -11.1609 H         1 <0>         0.4162
     54 H24         6.3324    2.6865  -11.2308 H         1 <0>         0.4092
@<TRIPOS>BOND
     1    1    2 1
     2    1   31 1
     3    1   32 1
     4    1   33 1
     5    2    3 2
     6    2    4 2
     7    2    5 1
     8    5   10 ar
     9    5    6 ar
    10    6    7 ar
    11    6   34 1
    12    7    8 ar
    13    7   35 1
    14    8    9 ar
    15    8   11 1
    16    9   10 ar
    17    9   36 1
    18   10   37 1
    19   11   12 1
    20   11   38 1
    21   11   39 1
    22   12   13 am
    23   12   40 1
    24   13   14 2
    25   13   15 1
    26   15   20 ar
    27   15   16 ar
    28   16   17 ar
    29   16   41 1
    30   17   18 ar
    31   17   30 1
    32   18   19 ar
    33   18   28 1
    34   19   20 ar
    35   19   21 1
    36   21   22 1
    37   22   23 1
    38   22   42 1
    39   22   43 1
    40   23   27 1
    41   23   24 1
    42   23   44 1
    43   24   25 1
    44   24   45 1
    45   24   46 1
    46   25   26 1
    47   25   47 1
    48   25   48 1
    49   26   27 1
    50   26   49 1
    51   26   50 1
    52   27   51 1
    53   27   52 1
    54   28   29 3
    55   30   53 1
    56   30   54 1
@<TRIPOS>MOLECULE
CHEMBL220320
   44    47     0     0     0
SMALL
USER_CHARGES

@<TRIPOS>ATOM
      1 C1          1.5534    2.1008   -1.2739 C.ar      1 <0>        -0.1096
      2 C2          2.8384    2.6064   -1.2101 C.ar      1 <0>        -0.1212
      3 C3          3.9105    1.7501   -1.0422 C.ar      1 <0>        -0.1008
      4 C4          3.6976    0.3882   -0.9376 C.ar      1 <0>        -0.1143
      5 C5          2.4125   -0.1173   -1.0005 C.ar      1 <0>        -0.1005
      6 C6          1.3406    0.7389   -1.1699 C.ar      1 <0>        -0.1211
      7 C7          4.8665   -0.5454   -0.7556 C.3       1 <0>         0.1627
      8 N1          5.1302   -0.7247    0.6743 N.am      1 <0>        -0.7280
      9 C8          6.1374   -1.5236    1.0788 C.2       1 <0>         0.5883
     10 O1          6.8278   -2.0960    0.2563 O.2       1 <0>        -0.5182
     11 C9          6.4015   -1.7032    2.5110 C.2       1 <0>        -0.0520
     12 C10         7.3890   -2.4761    3.0521 C.2       1 <0>        -0.0574
     13 C11         7.2832   -2.3626    4.4541 C.2       1 <0>        -0.1407
     14 C12         6.2259   -1.5172    4.7158 C.2       1 <0>         0.0565
     15 N2          5.7004   -1.1169    3.5405 N.pl3     1 <0>        -0.5288
     16 H1          4.9474   -0.5142    3.4369 H         1 <0>         0.4210
     17 C13         8.1451   -3.0260    5.4556 C.2       1 <0>         0.1877
     18 C14         8.5316   -4.3592    5.4586 C.2       1 <0>        -0.1957
     19 C15         9.3455   -4.5557    6.5889 C.2       1 <0>         0.0723
     20 N3          9.4474   -3.4217    7.2292 N.2       1 <0>        -0.2881
     21 N4          8.7149   -2.4435    6.5469 N.pl3     1 <0>        -0.4690
     22 H2          8.6267   -1.5133    6.8071 H         1 <0>         0.4402
     23 C16         8.1560   -5.3855    4.4568 C.ar      1 <0>         0.0167
     24 C17         6.8123   -5.6320    4.1777 C.ar      1 <0>        -0.0974
     25 C18         6.4679   -6.5879    3.2442 C.ar      1 <0>        -0.1045
     26 C19         7.4527   -7.3017    2.5850 C.ar      1 <0>        -0.1137
     27 C20         8.7885   -7.0620    2.8579 C.ar      1 <0>        -0.0305
     28 C21         9.1447   -6.1033    3.7864 C.ar      1 <0>        -0.1023
     29 Cl1        10.0180   -7.9630    2.0270 Cl        1 <0>        -0.0717
     30 H3          0.7154    2.7702   -1.4006 H         1 <0>         0.1248
     31 H4          3.0048    3.6703   -1.2918 H         1 <0>         0.1255
     32 H5          4.9145    2.1450   -0.9931 H         1 <0>         0.1245
     33 H6          2.2462   -1.1813   -0.9192 H         1 <0>         0.1248
     34 H7          0.3366    0.3439   -1.2194 H         1 <0>         0.1256
     35 H8          4.6343   -1.5104   -1.2060 H         1 <0>         0.0812
     36 H9          5.7479   -0.1223   -1.2373 H         1 <0>         0.0808
     37 H10         4.5798   -0.2684    1.3299 H         1 <0>         0.3949
     38 H11         8.1140   -3.0639    2.5088 H         1 <0>         0.1540
     39 H12         5.8801   -1.2225    5.6956 H         1 <0>         0.1788
     40 H13         9.8084   -5.4874    6.8786 H         1 <0>         0.1873
     41 H14         6.0422   -5.0759    4.6917 H         1 <0>         0.1241
     42 H15         5.4273   -6.7796    3.0278 H         1 <0>         0.1297
     43 H16         7.1783   -8.0489    1.8551 H         1 <0>         0.1310
     44 H17        10.1871   -5.9133    3.9954 H         1 <0>         0.1331
@<TRIPOS>BOND
     1    1    6 ar
     2    1    2 ar
     3    1   30 1
     4    2    3 ar
     5    2   31 1
     6    3    4 ar
     7    3   32 1
     8    4    5 ar
     9    4    7 1
    10    5    6 ar
    11    5   33 1
    12    6   34 1
    13    7    8 1
    14    7   35 1
    15    7   36 1
    16    8    9 am
    17    8   37 1
    18    9   10 2
    19    9   11 1
    20   11   15 1
    21   11   12 2
    22   12   13 1
    23   12   38 1
    24   13   14 2
    25   13   17 1
    26   14   15 1
    27   14   39 1
    28   15   16 1
    29   17   21 1
    30   17   18 2
    31   18   19 1
    32   18   23 1
    33   19   20 2
    34   19   40 1
    35   20   21 1
    36   21   22 1
    37   23   28 ar
    38   23   24 ar
    39   24   25 ar
    40   24   41 1
    41   25   26 ar
    42   25   42 1
    43   26   27 ar
    44   26   43 1
    45   27   28 ar
    46   27   29 1
    47   28   44 1
@<TRIPOS>MOLECULE
CHEMBL220320__1
   44    47     0     0     0
SMALL
USER_CHARGES

@<TRIPOS>ATOM
      1 C1         -0.0167    1.3781    0.0096 C.ar      1 <0>        -0.1101
      2 C2          1.1709    2.0855    0.0021 C.ar      1 <0>        -0.1213
      3 C3          2.3773    1.4107   -0.0130 C.ar      1 <0>        -0.1006
      4 C4          2.3960    0.0285   -0.0201 C.ar      1 <0>        -0.1136
      5 C5          1.2084   -0.6789   -0.0117 C.ar      1 <0>        -0.1006
      6 C6          0.0021   -0.0041    0.0020 C.ar      1 <0>        -0.1212
      7 C7          3.7112   -0.7071   -0.0376 C.3       1 <0>         0.1627
      8 N1          4.1518   -0.9524    1.3379 N.am      1 <0>        -0.7286
      9 C8          5.3108   -1.6005    1.5688 C.2       1 <0>         0.5904
     10 O1          5.9912   -1.9819    0.6348 O.2       1 <0>        -0.5227
     11 C9          5.7521   -1.8461    2.9463 C.2       1 <0>        -0.0571
     12 C10         6.9022   -2.4828    3.3204 C.2       1 <0>        -0.0676
     13 C11         6.9271   -2.4975    4.7284 C.2       1 <0>        -0.1172
     14 C12         5.7942   -1.8709    5.1642 C.2       1 <0>         0.0705
     15 N2          5.0835   -1.4706    4.0897 N.pl3     1 <0>        -0.5332
     16 H1          4.2375   -0.9969    4.1181 H         1 <0>         0.4196
     17 C13         7.9890   -3.0862    5.5820 C.2       1 <0>         0.1759
     18 C14         8.4283   -2.5847    6.8327 C.2       1 <0>        -0.2033
     19 C15         9.4119   -3.4136    7.2835 C.2       1 <0>         0.0822
     20 N3          9.5844   -4.3868    6.3661 N.pl3     1 <0>        -0.4697
     21 N4          8.6854   -4.1687    5.3153 N.2       1 <0>        -0.2801
     22 H2         10.2214   -5.1160    6.4255 H         1 <0>         0.4446
     23 C16         7.9123   -1.3779    7.5245 C.ar      1 <0>         0.0154
     24 C17         7.8012   -0.1711    6.8361 C.ar      1 <0>        -0.1003
     25 C18         7.3202    0.9485    7.4837 C.ar      1 <0>        -0.1047
     26 C19         6.9488    0.8754    8.8141 C.ar      1 <0>        -0.1158
     27 C20         7.0572   -0.3201    9.5033 C.ar      1 <0>        -0.0320
     28 C21         7.5317   -1.4485    8.8627 C.ar      1 <0>        -0.1070
     29 Cl1         6.5901   -0.4033   11.1732 Cl        1 <0>        -0.0707
     30 H3         -0.9591    1.9053    0.0259 H         1 <0>         0.1245
     31 H4          1.1563    3.1654    0.0076 H         1 <0>         0.1253
     32 H5          3.3051    1.9634   -0.0196 H         1 <0>         0.1246
     33 H6          1.2231   -1.7588   -0.0176 H         1 <0>         0.1246
     34 H7         -0.9258   -0.5567    0.0082 H         1 <0>         0.1253
     35 H8          3.5884   -1.6586   -0.5549 H         1 <0>         0.0803
     36 H9          4.4573   -0.1052   -0.5563 H         1 <0>         0.0804
     37 H10         3.6095   -0.6484    2.0824 H         1 <0>         0.3954
     38 H11         7.6503   -2.8970    2.6607 H         1 <0>         0.1531
     39 H12         5.5161   -1.7177    6.1965 H         1 <0>         0.1756
     40 H13         9.9565   -3.3094    8.2103 H         1 <0>         0.1813
     41 H14         8.0914   -0.1123    5.7975 H         1 <0>         0.1298
     42 H15         7.2339    1.8839    6.9507 H         1 <0>         0.1316
     43 H16         6.5733    1.7543    9.3171 H         1 <0>         0.1316
     44 H17         7.6119   -2.3821    9.3996 H         1 <0>         0.1326
@<TRIPOS>BOND
     1    1    6 ar
     2    1    2 ar
     3    1   30 1
     4    2    3 ar
     5    2   31 1
     6    3    4 ar
     7    3   32 1
     8    4    5 ar
     9    4    7 1
    10    5    6 ar
    11    5   33 1
    12    6   34 1
    13    7    8 1
    14    7   35 1
    15    7   36 1
    16    8    9 am
    17    8   37 1
    18    9   10 2
    19    9   11 1
    20   11   15 1
    21   11   12 2
    22   12   13 1
    23   12   38 1
    24   13   14 2
    25   13   17 1
    26   14   15 1
    27   14   39 1
    28   15   16 1
    29   17   21 2
    30   17   18 1
    31   18   23 1
    32   18   19 2
    33   19   40 1
    34   19   20 1
    35   20   21 1
    36   20   22 1
    37   23   28 ar
    38   23   24 ar
    39   24   25 ar
    40   24   41 1
    41   25   26 ar
    42   25   42 1
    43   26   27 ar
    44   26   43 1
    45   27   28 ar
    46   27   29 1
    47   28   44 1
@<TRIPOS>MOLECULE
CHEMBL549653
   47    51     0     0     0
SMALL
USER_CHARGES

@<TRIPOS>ATOM
      1 C1         -0.0167    1.3791    0.0096 C.ar      1 <0>        -0.1113
      2 C2          1.1686    2.0923    0.0021 C.ar      1 <0>        -0.1184
      3 C3          2.3774    1.4266   -0.0134 C.ar      1 <0>        -0.1019
      4 C4          2.4024    0.0329   -0.0211 C.ar      1 <0>        -0.0557
      5 C5          1.2049   -0.6804   -0.0130 C.ar      1 <0>        -0.1041
      6 C6          0.0021   -0.0041    0.0020 C.ar      1 <0>        -0.1184
      7 C7          3.6983   -0.6881   -0.0382 C.ar      1 <0>         0.0178
      8 C8          4.8936    0.0322   -0.0409 C.ar      1 <0>        -0.1397
      9 C9          6.0988   -0.6355   -0.0564 C.ar      1 <0>        -0.0260
     10 C10         6.1209   -2.0269   -0.0693 C.ar      1 <0>        -0.1125
     11 C11         4.9261   -2.7596   -0.0668 C.ar      1 <0>         0.1838
     12 C12         3.7160   -2.0800   -0.0458 C.ar      1 <0>        -0.1377
     13 N1          5.2171   -4.1210   -0.0816 N.am      1 <0>        -0.5439
     14 C13         6.5427   -4.3412   -0.0939 C.2       1 <0>         0.5370
     15 O1          7.0887   -5.4270   -0.1085 O.2       1 <0>        -0.4377
     16 C14         7.2213   -3.0197   -0.0870 C.2       1 <0>         0.1205
     17 N2          8.5027   -2.7849   -0.0956 N.2       1 <0>        -0.2414
     18 O2          9.4200   -3.8634   -0.1125 O.3       1 <0>        -0.3671
     19 C15         4.2052   -5.1805   -0.0827 C.3       1 <0>         0.1656
     20 C16         3.8464   -5.5309   -1.5038 C.ar      1 <0>        -0.1205
     21 C17         2.6982   -5.0154   -2.0732 C.ar      1 <0>        -0.0965
     22 C18         2.3678   -5.3376   -3.3783 C.ar      1 <0>         0.0694
     23 C19         3.1871   -6.1773   -4.1133 C.ar      1 <0>        -0.0984
     24 C20         4.3364   -6.6949   -3.5461 C.ar      1 <0>        -0.1789
     25 C21         4.6726   -6.3667   -2.2419 C.ar      1 <0>         0.1465
     26 O3          5.8081   -6.8581   -1.6766 O.3       1 <0>        -0.2996
     27 C22         6.4224   -7.9748   -2.3259 C.3       1 <0>         0.2220
     28 O4          6.5066   -7.6987   -3.7291 O.3       1 <0>        -0.3808
     29 C23         5.2191   -7.6118   -4.3546 C.3       1 <0>         0.1001
     30 F1          1.2451   -4.8327   -3.9348 F         1 <0>        -0.1345
     31 H1         -0.9603    1.9042    0.0260 H         1 <0>         0.1245
     32 H2          1.1480    3.1720    0.0081 H         1 <0>         0.1266
     33 H3          3.3022    1.9844   -0.0199 H         1 <0>         0.1290
     34 H4          1.2184   -1.7603   -0.0192 H         1 <0>         0.1247
     35 H5         -0.9264   -0.5557    0.0082 H         1 <0>         0.1260
     36 H6          4.8740    1.1120   -0.0312 H         1 <0>         0.1393
     37 H7          7.0249   -0.0799   -0.0588 H         1 <0>         0.1396
     38 H8          2.7875   -2.6316   -0.0396 H         1 <0>         0.1338
     39 H9         10.3477   -3.5907   -0.1178 H         1 <0>         0.4103
     40 H10         4.6022   -6.0625    0.4198 H         1 <0>         0.1096
     41 H11         3.3150   -4.8332    0.4417 H         1 <0>         0.1021
     42 H12         2.0581   -4.3612   -1.4999 H         1 <0>         0.1443
     43 H13         2.9277   -6.4285   -5.1312 H         1 <0>         0.1442
     44 H14         7.4234   -8.1274   -1.9224 H         1 <0>         0.1457
     45 H15         5.8200   -8.8687   -2.1644 H         1 <0>         0.0647
     46 H16         4.7623   -8.5999   -4.4112 H         1 <0>         0.0804
     47 H17         5.3395   -7.2079   -5.3598 H         1 <0>         0.1173
@<TRIPOS>BOND
     1    1    6 ar
     2    1    2 ar
     3    1   31 1
     4    2    3 ar
     5    2   32 1
     6    3    4 ar
     7    3   33 1
     8    4    5 ar
     9    4    7 1
    10    5    6 ar
    11    5   34 1
    12    6   35 1
    13    7   12 ar
    14    7    8 ar
    15    8    9 ar
    16    8   36 1
    17    9   10 ar
    18    9   37 1
    19   10   16 1
    20   10   11 ar
    21   11   12 ar
    22   11   13 1
    23   12   38 1
    24   13   14 am
    25   13   19 1
    26   14   15 2
    27   14   16 1
    28   16   17 2
    29   17   18 1
    30   18   39 1
    31   19   20 1
    32   19   40 1
    33   19   41 1
    34   20   25 ar
    35   20   21 ar
    36   21   22 ar
    37   21   42 1
    38   22   23 ar
    39   22   30 1
    40   23   24 ar
    41   23   43 1
    42   24   29 1
    43   24   25 ar
    44   25   26 1
    45   26   27 1
    46   27   28 1
    47   27   44 1
    48   27   45 1
    49   28   29 1
    50   29   46 1
    51   29   47 1
@<TRIPOS>MOLECULE
CHEMBL208637
   28    28     0     0     0
SMALL
USER_CHARGES

@<TRIPOS>ATOM
      1 C1         -0.0161    1.5257    0.0111 C.3       1 <0>        -0.1556
      2 C2          0.0042   -0.0041    0.0026 C.3       1 <0>         0.0690
      3 O1          0.6746   -0.4651   -1.1722 O.3       1 <0>        -0.2969
      4 C3          0.7799   -1.8060   -1.3340 C.ar      1 <0>         0.4420
      5 C4          1.4321   -2.3212   -2.4641 C.ar      1 <0>        -0.2149
      6 C5          1.5306   -3.7202   -2.6131 C.ar      1 <0>         0.3538
      7 C6          0.9735   -4.5277   -1.6275 C.ar      1 <0>        -0.3261
      8 C7          0.3453   -3.9373   -0.5407 C.ar      1 <0>         0.4628
      9 N1          0.2721   -2.6178   -0.4235 N.ar      1 <0>        -0.5658
     10 N2         -0.2127   -4.7429    0.4466 N.am      1 <0>        -0.6591
     11 C8         -0.7348   -4.1846    1.5566 C.2       1 <0>         0.5019
     12 O2         -0.8021   -2.9777    1.6542 O.2       1 <0>        -0.4701
     13 C9         -1.2351   -5.0602    2.6765 C.3       1 <0>        -0.1700
     14 N3          2.1657   -4.2758   -3.7134 N.pl3     1 <0>        -0.8427
     15 C10         1.9876   -1.4424   -3.4490 C.1       1 <0>         0.2725
     16 N4          2.4282   -0.7453   -4.2302 N.1       1 <0>        -0.4274
     17 H1          1.0066    1.9027    0.0048 H         1 <0>         0.0644
     18 H2         -0.5419    1.8870   -0.8727 H         1 <0>         0.0643
     19 H3         -0.5275    1.8774    0.9071 H         1 <0>         0.0818
     20 H4          0.5300   -0.3654    0.8864 H         1 <0>         0.0745
     21 H5         -1.0185   -0.3811    0.0088 H         1 <0>         0.0738
     22 H6          1.0290   -5.6033   -1.7075 H         1 <0>         0.1465
     23 H7         -0.2261   -5.7065    0.3361 H         1 <0>         0.4221
     24 H8         -1.0930   -6.1075    2.4102 H         1 <0>         0.0789
     25 H9         -0.6790   -4.8382    3.5874 H         1 <0>         0.1007
     26 H10        -2.2952   -4.8680    2.8422 H         1 <0>         0.1003
     27 H11         2.5495   -3.7005   -4.3936 H         1 <0>         0.4074
     28 H12         2.2260   -5.2397   -3.8030 H         1 <0>         0.4119
@<TRIPOS>BOND
     1    1    2 1
     2    1   17 1
     3    1   18 1
     4    1   19 1
     5    2    3 1
     6    2   20 1
     7    2   21 1
     8    3    4 1
     9    4    9 ar
    10    4    5 ar
    11    5    6 ar
    12    5   15 1
    13    6    7 ar
    14    6   14 1
    15    7    8 ar
    16    7   22 1
    17    8    9 ar
    18    8   10 1
    19   10   11 am
    20   10   23 1
    21   11   12 2
    22   11   13 1
    23   13   24 1
    24   13   25 1
    25   13   26 1
    26   14   27 1
    27   14   28 1
    28   15   16 3
@<TRIPOS>MOLECULE
CHEMBL585951
   64    69     0     0     0
SMALL
USER_CHARGES

@<TRIPOS>ATOM
      1 C1          1.0707   -0.4518   -0.6759 C.ar      1 <0>        -0.0879
      2 C2          2.2553    0.2565   -0.6751 C.ar      1 <0>        -0.1143
      3 C3          2.3712    1.4151    0.0815 C.ar      1 <0>         0.1381
      4 C4          1.2952    1.8615    0.8375 C.ar      1 <0>        -0.0884
      5 C5          0.1103    1.1536    0.8370 C.ar      1 <0>        -0.1252
      6 C6         -0.0059   -0.0053    0.0798 C.ar      1 <0>         0.1634
      7 N1         -1.2071   -0.7228    0.0788 N.pl3     1 <0>        -0.6363
      8 C7         -1.1897   -2.1022   -0.0470 C.ar      1 <0>         0.5630
      9 N2         -0.0253   -2.7353   -0.0545 N.ar      1 <0>        -0.5554
     10 C8          0.0333   -4.0520   -0.1727 C.ar      1 <0>         0.1940
     11 C9         -1.1414   -4.7741   -0.2899 C.ar      1 <0>        -0.2635
     12 C10        -2.3536   -4.0795   -0.2788 C.ar      1 <0>         0.2605
     13 N3         -2.3366   -2.7546   -0.1511 N.ar      1 <0>        -0.5539
     14 C11        -3.6399   -4.8077   -0.4019 C.ar      1 <0>         0.0153
     15 C12        -4.8358   -4.1004   -0.5003 C.ar      1 <0>        -0.1596
     16 C13        -6.0358   -4.7861   -0.6157 C.ar      1 <0>         0.2428
     17 C14        -6.0432   -6.1757   -0.6328 C.ar      1 <0>        -0.2206
     18 C15        -4.8551   -6.8784   -0.5346 C.ar      1 <0>         0.1485
     19 C16        -3.6542   -6.2010   -0.4251 C.ar      1 <0>        -0.1837
     20 F1         -4.8678   -8.2293   -0.5513 F         1 <0>        -0.1332
     21 N4         -7.2371   -4.0800   -0.7141 N.pl3     1 <0>        -0.6272
     22 C17        -7.2462   -2.6130   -0.8282 C.3       1 <0>         0.0846
     23 C18        -8.1321   -2.2261   -2.0180 C.3       1 <0>         0.0456
     24 O1         -9.4061   -2.8603   -1.8821 O.3       1 <0>        -0.3776
     25 C19        -9.3540   -4.2888   -1.9030 C.3       1 <0>         0.0454
     26 C20        -8.5305   -4.7818   -0.7130 C.3       1 <0>         0.0829
     27 N5          3.5751    2.1344    0.0826 N.pl3     1 <0>        -0.3263
     28 C21         4.6635    1.8851   -0.6694 C.2       1 <0>         0.2864
     29 N6          5.5751    2.7781   -0.3769 N.2       1 <0>        -0.5628
     30 C22         5.1073    3.6134    0.5559 C.2       1 <0>         0.4846
     31 N7          3.8812    3.2605    0.8640 N.2       1 <0>        -0.3649
     32 N8          5.8060    4.6881    1.1077 N.pl3     1 <0>        -0.5899
     33 C23         5.1927    5.5416    2.1377 C.3       1 <0>         0.1014
     34 C24         6.1679    5.6552    3.3150 C.3       1 <0>         0.0469
     35 O2          7.4474    6.0673    2.8282 O.3       1 <0>        -0.3791
     36 C25         8.0564    5.1409    1.9256 C.3       1 <0>         0.0463
     37 C26         7.1799    4.9975    0.6812 C.3       1 <0>         0.1016
     38 H1          0.9793   -1.3507   -1.2676 H         1 <0>         0.1462
     39 H2          3.0924   -0.0906   -1.2626 H         1 <0>         0.1345
     40 H3          1.3856    2.7624    1.4261 H         1 <0>         0.1411
     41 H4         -0.7263    1.5005    1.4252 H         1 <0>         0.1354
     42 H5         -2.0520   -0.2544    0.1661 H         1 <0>         0.4253
     43 H6          0.9877   -4.5576   -0.1780 H         1 <0>         0.1758
     44 H7         -1.1216   -5.8495   -0.3880 H         1 <0>         0.1518
     45 H8         -4.8287   -3.0205   -0.4865 H         1 <0>         0.1430
     46 H9         -6.9784   -6.7084   -0.7227 H         1 <0>         0.1392
     47 H10        -2.7281   -6.7519   -0.3530 H         1 <0>         0.1407
     48 H11        -7.6481   -2.1762    0.0860 H         1 <0>         0.0755
     49 H12        -6.2313   -2.2512   -0.9932 H         1 <0>         0.0958
     50 H13        -8.2641   -1.1442   -2.0370 H         1 <0>         0.1076
     51 H14        -7.6599   -2.5523   -2.9447 H         1 <0>         0.0570
     52 H15       -10.3651   -4.6909   -1.8393 H         1 <0>         0.1079
     53 H16        -8.8863   -4.6225   -2.8293 H         1 <0>         0.0568
     54 H17        -8.3657   -5.8556   -0.8018 H         1 <0>         0.0942
     55 H18        -9.0639   -4.5670    0.2130 H         1 <0>         0.0759
     56 H19         4.7668    1.0868   -1.3893 H         1 <0>         0.2228
     57 H20         4.9978    6.5317    1.7256 H         1 <0>         0.0743
     58 H21         4.2585    5.0940    2.4768 H         1 <0>         0.0960
     59 H22         5.7949    6.3913    4.0270 H         1 <0>         0.1081
     60 H23         6.2600    4.6865    3.8062 H         1 <0>         0.0556
     61 H24         9.0419    5.5070    1.6380 H         1 <0>         0.1087
     62 H25         8.1553    4.1703    2.4118 H         1 <0>         0.0552
     63 H26         7.5610    4.1899    0.0562 H         1 <0>         0.1016
     64 H27         7.1884    5.9319    0.1200 H         1 <0>         0.0726
@<TRIPOS>BOND
     1    1    6 ar
     2    1    2 ar
     3    1   38 1
     4    2    3 ar
     5    2   39 1
     6    3    4 ar
     7    3   27 1
     8    4    5 ar
     9    4   40 1
    10    5    6 ar
    11    5   41 1
    12    6    7 1
    13    7    8 1
    14    7   42 1
    15    8   13 ar
    16    8    9 ar
    17    9   10 ar
    18   10   11 ar
    19   10   43 1
    20   11   12 ar
    21   11   44 1
    22   12   13 ar
    23   12   14 1
    24   14   19 ar
    25   14   15 ar
    26   15   16 ar
    27   15   45 1
    28   16   17 ar
    29   16   21 1
    30   17   18 ar
    31   17   46 1
    32   18   19 ar
    33   18   20 1
    34   19   47 1
    35   21   26 1
    36   21   22 1
    37   22   23 1
    38   22   48 1
    39   22   49 1
    40   23   24 1
    41   23   50 1
    42   23   51 1
    43   24   25 1
    44   25   26 1
    45   25   52 1
    46   25   53 1
    47   26   54 1
    48   26   55 1
    49   27   31 1
    50   27   28 1
    51   28   29 2
    52   28   56 1
    53   29   30 1
    54   30   31 2
    55   30   32 1
    56   32   37 1
    57   32   33 1
    58   33   34 1
    59   33   57 1
    60   33   58 1
    61   34   35 1
    62   34   59 1
    63   34   60 1
    64   35   36 1
    65   36   37 1
    66   36   61 1
    67   36   62 1
    68   37   63 1
    69   37   64 1
@<TRIPOS>MOLECULE
CHEMBL571434
   54    58     0     0     0
SMALL
USER_CHARGES

@<TRIPOS>ATOM
      1 C1         -0.5220    1.2615    0.3466 C.3       1 <0>         0.0935
      2 N1         -0.8439   -0.1522    0.1367 N.pl3     1 <0>        -0.1390
      3 N2         -0.3838   -0.8880   -0.8161 N.2       1 <0>        -0.3036
      4 C2         -0.8950   -2.0951   -0.6763 C.2       1 <0>         0.2156
      5 N3         -1.6855   -2.0545    0.4057 N.2       1 <0>        -0.2754
      6 N4         -1.6262   -0.8558    0.8784 N.2       1 <0>        -0.0586
      7 C3         -0.6444   -3.2702   -1.5474 C.ar      1 <0>        -0.0331
      8 C4          0.2128   -3.1583   -2.6406 C.ar      1 <0>        -0.0581
      9 C5          0.4442   -4.2510   -3.4487 C.ar      1 <0>        -0.1476
     10 C6         -0.1770   -5.4637   -3.1740 C.ar      1 <0>         0.1860
     11 C7         -1.0323   -5.5775   -2.0842 C.ar      1 <0>        -0.1123
     12 C8         -1.2615   -4.4887   -1.2701 C.ar      1 <0>        -0.0551
     13 N5          0.0581   -6.5696   -3.9946 N.pl3     1 <0>        -0.6398
     14 C9          0.1798   -7.8322   -3.4375 C.ar      1 <0>         0.5647
     15 N6          0.1764   -7.9588   -2.1182 N.ar      1 <0>        -0.5532
     16 C10         0.2900   -9.1475   -1.5478 C.ar      1 <0>         0.1957
     17 C11         0.4139  -10.2719   -2.3451 C.ar      1 <0>        -0.2658
     18 C12         0.4142  -10.1073   -3.7324 C.ar      1 <0>         0.2594
     19 N7          0.2910   -8.8815   -4.2365 N.ar      1 <0>        -0.5557
     20 C13         0.5443  -11.2810   -4.6300 C.ar      1 <0>        -0.0105
     21 C14         0.6616  -12.5591   -4.0920 C.ar      1 <0>        -0.0992
     22 C15         0.7837  -13.6603   -4.9384 C.ar      1 <0>         0.0222
     23 C16         0.7880  -13.4771   -6.3224 C.ar      1 <0>        -0.1373
     24 C17         0.6713  -12.2014   -6.8539 C.ar      1 <0>         0.2165
     25 C18         0.5434  -11.1049   -6.0123 C.ar      1 <0>        -0.1216
     26 N8          0.6767  -12.0201   -8.2394 N.pl3     1 <0>        -0.6296
     27 C19         0.6734  -10.6709   -8.8268 C.3       1 <0>         0.0849
     28 C20         1.8011  -10.5915   -9.8621 C.3       1 <0>         0.0454
     29 O1          1.6775  -11.6827  -10.7774 O.3       1 <0>        -0.3778
     30 C21         1.8135  -12.9714  -10.1735 C.3       1 <0>         0.0450
     31 C22         0.6921  -13.1726   -9.1541 C.3       1 <0>         0.0834
     32 C23         0.9051  -14.9771   -4.3889 C.1       1 <0>         0.2517
     33 N9          1.0014  -16.0218   -3.9530 N.1       1 <0>        -0.4054
     34 H1          0.3566    1.3430    0.9866 H         1 <0>         0.1033
     35 H2         -0.3168    1.7339   -0.6140 H         1 <0>         0.1119
     36 H3         -1.3663    1.7594    0.8234 H         1 <0>         0.1142
     37 H4          0.6951   -2.2160   -2.8548 H         1 <0>         0.1362
     38 H5          1.1084   -4.1646   -4.2960 H         1 <0>         0.1330
     39 H6         -1.5141   -6.5206   -1.8724 H         1 <0>         0.1362
     40 H7         -1.9223   -4.5787   -0.4206 H         1 <0>         0.1386
     41 H8          0.1361   -6.4535   -4.9545 H         1 <0>         0.4250
     42 H9          0.2865   -9.2392   -0.4717 H         1 <0>         0.1751
     43 H10         0.5084  -11.2537   -1.9051 H         1 <0>         0.1513
     44 H11         0.6583  -12.6977   -3.0209 H         1 <0>         0.1387
     45 H12         0.8825  -14.3291   -6.9794 H         1 <0>         0.1368
     46 H13         0.4475  -10.1133   -6.4294 H         1 <0>         0.1450
     47 H14        -0.2845  -10.4842   -9.3123 H         1 <0>         0.0753
     48 H15         0.8398   -9.9297   -8.0450 H         1 <0>         0.0958
     49 H16         1.7300   -9.6498  -10.4064 H         1 <0>         0.1070
     50 H17         2.7647  -10.6483   -9.3558 H         1 <0>         0.0571
     51 H18         1.7513  -13.7419  -10.9420 H         1 <0>         0.1072
     52 H19         2.7772  -13.0368   -9.6684 H         1 <0>         0.0570
     53 H20         0.8710  -14.0874   -8.5891 H         1 <0>         0.0936
     54 H21        -0.2638  -13.2421   -9.6732 H         1 <0>         0.0761
@<TRIPOS>BOND
     1    1    2 1
     2    1   34 1
     3    1   35 1
     4    1   36 1
     5    2    6 1
     6    2    3 1
     7    3    4 2
     8    4    5 1
     9    4    7 1
    10    5    6 2
    11    7   12 ar
    12    7    8 ar
    13    8    9 ar
    14    8   37 1
    15    9   10 ar
    16    9   38 1
    17   10   11 ar
    18   10   13 1
    19   11   12 ar
    20   11   39 1
    21   12   40 1
    22   13   14 1
    23   13   41 1
    24   14   19 ar
    25   14   15 ar
    26   15   16 ar
    27   16   17 ar
    28   16   42 1
    29   17   18 ar
    30   17   43 1
    31   18   19 ar
    32   18   20 1
    33   20   25 ar
    34   20   21 ar
    35   21   22 ar
    36   21   44 1
    37   22   23 ar
    38   22   32 1
    39   23   24 ar
    40   23   45 1
    41   24   25 ar
    42   24   26 1
    43   25   46 1
    44   26   31 1
    45   26   27 1
    46   27   28 1
    47   27   47 1
    48   27   48 1
    49   28   29 1
    50   28   49 1
    51   28   50 1
    52   29   30 1
    53   30   31 1
    54   30   51 1
    55   30   52 1
    56   31   53 1
    57   31   54 1
    58   32   33 3
@<TRIPOS>MOLECULE
CHEMBL162
   62    69     0     0     0
SMALL
USER_CHARGES

@<TRIPOS>ATOM
      1 C1         -0.1276    1.5938   -0.2902 C.3       1 <0>        -0.1687
      2 C2         -0.0844    0.0680   -0.1855 C.3       1 <0>         0.3345
      3 C3          0.5692   -0.4497   -1.4608 C.3       1 <0>         0.0405
      4 H1          1.4795    0.1163   -1.6584 H         1 <0>         0.1372
      5 C4          0.9165   -1.9328   -1.2885 C.3       1 <0>        -0.0062
      6 H2          1.3941   -2.3067   -2.1942 H         1 <0>         0.1555
      7 C5          1.8808   -2.0612   -0.1039 C.3       1 <0>        -0.1828
      8 C6          1.2106   -1.5234    1.1545 C.3       1 <0>         0.3001
      9 O1          0.6584   -0.2480    0.9698 O.3       1 <0>        -0.3232
     10 N1          0.2248   -2.4800    1.6600 N.pl3     1 <0>        -0.5368
     11 C7          0.4774   -3.5588    2.4701 C.ar      1 <0>         0.1470
     12 C8          1.6719   -4.0282    3.0159 C.ar      1 <0>        -0.1521
     13 C9          1.6013   -5.1613    3.8083 C.ar      1 <0>        -0.0582
     14 C10         0.4065   -5.8141    4.0588 C.ar      1 <0>        -0.1457
     15 C11        -0.7928   -5.3694    3.5296 C.ar      1 <0>        -0.0281
     16 C12        -0.7420   -4.2270    2.7281 C.ar      1 <0>        -0.1133
     17 C13        -1.7834   -3.4873    2.0211 C.ar      1 <0>         0.0272
     18 C14        -1.1387   -2.4235    1.3862 C.ar      1 <0>         0.0375
     19 C15        -1.8766   -1.5121    0.6225 C.ar      1 <0>         0.0893
     20 N2         -1.4701   -0.3965   -0.1042 N.pl3     1 <0>        -0.5183
     21 C16        -2.5609    0.1893   -0.7020 C.ar      1 <0>         0.1620
     22 C17        -2.6555    1.3256   -1.5046 C.ar      1 <0>        -0.1301
     23 C18        -3.9158    1.6704   -1.9636 C.ar      1 <0>        -0.0737
     24 C19        -5.0430    0.9315   -1.6503 C.ar      1 <0>        -0.1357
     25 C20        -4.9749   -0.2010   -0.8555 C.ar      1 <0>        -0.0503
     26 C21        -3.7134   -0.5626   -0.3834 C.ar      1 <0>        -0.1044
     27 C22        -3.2655   -1.6685    0.4924 C.ar      1 <0>        -0.0362
     28 C23        -3.9045   -2.7331    1.1195 C.ar      1 <0>        -0.0289
     29 C24        -3.1819   -3.6452    1.8815 C.ar      1 <0>        -0.1255
     30 C25        -4.1160   -4.6505    2.4114 C.2       1 <0>         0.5633
     31 O2         -3.7988   -5.5888    3.1172 O.2       1 <0>        -0.5106
     32 N3         -5.3694   -4.3854    2.0058 N.am      1 <0>        -0.7162
     33 C26        -5.3459   -3.1769    1.1740 C.3       1 <0>         0.1359
     34 N4         -0.3065   -2.7008   -1.0194 N.4       1 <0>        -0.5253
     35 C27         0.0148   -4.1335   -0.9747 C.3       1 <0>        -0.0497
     36 O3         -0.3352   -0.2957   -2.5564 O.3       1 <0>        -0.3613
     37 C28         0.3074   -0.0892   -3.8159 C.3       1 <0>         0.0162
     38 H3          0.8308    2.0068    0.0247 H         1 <0>         0.0984
     39 H4         -0.3256    1.8817   -1.3227 H         1 <0>         0.1037
     40 H5         -0.9185    1.9799    0.3528 H         1 <0>         0.0921
     41 H6          2.1400   -3.1098    0.0419 H         1 <0>         0.1233
     42 H7          2.7852   -1.4878   -0.3076 H         1 <0>         0.1455
     43 H8          1.9835   -1.4379    1.9183 H         1 <0>         0.1550
     44 H9          2.6113   -3.5296    2.8282 H         1 <0>         0.1364
     45 H10         2.5093   -5.5494    4.2456 H         1 <0>         0.1359
     46 H11         0.4102   -6.6943    4.6846 H         1 <0>         0.1352
     47 H12        -1.7231   -5.8814    3.7271 H         1 <0>         0.1602
     48 H13        -1.7841    1.9115   -1.7569 H         1 <0>         0.1438
     49 H14        -4.0225    2.5459   -2.5869 H         1 <0>         0.1335
     50 H15        -6.0015    1.2460   -2.0361 H         1 <0>         0.1333
     51 H16        -5.8562   -0.7761   -0.6128 H         1 <0>         0.1416
     52 H17        -6.1577   -4.9060    2.2257 H         1 <0>         0.4348
     53 H18        -5.9609   -2.3989    1.6262 H         1 <0>         0.1115
     54 H19        -5.7062   -3.4047    0.1708 H         1 <0>         0.1104
     55 H20        -0.6946   -2.4153   -0.1328 H         1 <0>         0.4186
     56 H21         0.7414   -4.3184   -0.1836 H         1 <0>         0.1191
     57 H22        -0.8927   -4.7033   -0.7750 H         1 <0>         0.1256
     58 H23         0.4340   -4.4418   -1.9324 H         1 <0>         0.1255
     59 H24        -0.4469    0.0185   -4.5954 H         1 <0>         0.1100
     60 H25         0.9142    0.8152   -3.7703 H         1 <0>         0.0633
     61 H26         0.9451   -0.9435   -4.0429 H         1 <0>         0.0514
     62 H27        -0.9792   -2.5296   -1.7517 H         1 <0>         0.4274
@<TRIPOS>BOND
     1    1    2 1
     2    1   38 1
     3    1   39 1
     4    1   40 1
     5    2    9 1
     6    2   20 1
     7    2    3 1
     8    3    4 1
     9    3    5 1
    10    3   36 1
    11    5    6 1
    12    5    7 1
    13    5   34 1
    14    7    8 1
    15    7   41 1
    16    7   42 1
    17    8    9 1
    18    8   10 1
    19    8   43 1
    20   10   18 1
    21   10   11 1
    22   11   16 ar
    23   11   12 ar
    24   12   13 ar
    25   12   44 1
    26   13   14 ar
    27   13   45 1
    28   14   15 ar
    29   14   46 1
    30   15   16 ar
    31   15   47 1
    32   16   17 1
    33   17   29 ar
    34   17   18 ar
    35   18   19 ar
    36   19   27 ar
    37   19   20 1
    38   20   21 1
    39   21   26 ar
    40   21   22 ar
    41   22   23 ar
    42   22   48 1
    43   23   24 ar
    44   23   49 1
    45   24   25 ar
    46   24   50 1
    47   25   26 ar
    48   25   51 1
    49   26   27 1
    50   27   28 ar
    51   28   33 1
    52   28   29 ar
    53   29   30 1
    54   30   31 2
    55   30   32 am
    56   32   33 1
    57   32   52 1
    58   33   53 1
    59   33   54 1
    60   34   35 1
    61   34   55 1
    62   34   62 1
    63   35   56 1
    64   35   57 1
    65   35   58 1
    66   36   37 1
    67   37   59 1
    68   37   60 1
    69   37   61 1
@<TRIPOS>MOLECULE
CHEMBL162__1
   61    68     0     0     0
SMALL
USER_CHARGES

@<TRIPOS>ATOM
      1 C1         -0.0567    1.5513   -0.0894 C.3       1 <0>        -0.1681
      2 C2         -0.0278    0.0218   -0.0599 C.3       1 <0>         0.3623
      3 C3          0.5811   -0.4397   -1.3782 C.3       1 <0>         0.0679
      4 H1          1.4914    0.1262   -1.5761 H         1 <0>         0.0865
      5 C4          0.9165   -1.9328   -1.2885 C.3       1 <0>         0.0550
      6 H2          1.3622   -2.2669   -2.2254 H         1 <0>         0.0644
      7 C5          1.9146   -2.1282   -0.1417 C.3       1 <0>        -0.1713
      8 C6          1.2889   -1.6457    1.1613 C.3       1 <0>         0.3303
      9 O1          0.7459   -0.3574    1.0554 O.3       1 <0>        -0.3432
     10 N1          0.3079   -2.6158    1.6500 N.pl3     1 <0>        -0.5147
     11 C7          0.5725   -3.7353    2.3988 C.ar      1 <0>         0.1480
     12 C8          1.7775   -4.2425    2.8844 C.ar      1 <0>        -0.1567
     13 C9          1.7179   -5.4120    3.6229 C.ar      1 <0>        -0.0771
     14 C10         0.5239   -6.0644    3.8782 C.ar      1 <0>        -0.1623
     15 C11        -0.6857   -5.5826    3.4081 C.ar      1 <0>        -0.0380
     16 C12        -0.6461   -4.4031    2.6615 C.ar      1 <0>        -0.1052
     17 C13        -1.6998   -3.6196    2.0235 C.ar      1 <0>        -0.0146
     18 C14        -1.0625   -2.5326    1.4212 C.ar      1 <0>         0.1328
     19 C15        -1.8127   -1.5778    0.7254 C.ar      1 <0>         0.2189
     20 N2         -1.4156   -0.4323    0.0413 N.pl3     1 <0>        -0.4798
     21 C16        -2.5171    0.1927   -0.4937 C.ar      1 <0>         0.1719
     22 C17        -2.6230    1.3676   -1.2371 C.ar      1 <0>        -0.1371
     23 C18        -3.8926    1.7468   -1.6400 C.ar      1 <0>        -0.0918
     24 C19        -5.0181    1.0048   -1.3284 C.ar      1 <0>        -0.1543
     25 C20        -4.9390   -0.1657   -0.5916 C.ar      1 <0>        -0.0609
     26 C21        -3.6680   -0.5623   -0.1765 C.ar      1 <0>        -0.0961
     27 C22        -3.2066   -1.7140    0.6307 C.ar      1 <0>        -0.0806
     28 C23        -3.8384   -2.8014    1.2249 C.ar      1 <0>        -0.0396
     29 C24        -3.1037   -3.7566    1.9194 C.ar      1 <0>        -0.1488
     30 C25        -4.0327   -4.7771    2.4285 C.2       1 <0>         0.5678
     31 O2         -3.7051   -5.7517    3.0781 O.2       1 <0>        -0.5303
     32 N3         -5.2947   -4.4802    2.0748 N.am      1 <0>        -0.7263
     33 C26        -5.2825   -3.2330    1.3021 C.3       1 <0>         0.1443
     34 N4         -0.3065   -2.7008   -1.0194 N.3       1 <0>        -0.6725
     35 C27        -0.9816   -3.0711   -2.2704 C.3       1 <0>         0.0321
     36 O3         -0.3541   -0.2236   -2.4368 O.3       1 <0>        -0.3500
     37 C28         0.2525    0.0376   -3.7040 C.3       1 <0>         0.0254
     38 H3          0.9143    1.9390    0.2190 H         1 <0>         0.0847
     39 H4         -0.2789    1.8910   -1.1010 H         1 <0>         0.0945
     40 H5         -0.8258    1.9134    0.5927 H         1 <0>         0.0811
     41 H6          2.1661   -3.1852   -0.0547 H         1 <0>         0.0955
     42 H7          2.8189   -1.5546   -0.3450 H         1 <0>         0.1024
     43 H8          2.0854   -1.6051    1.9042 H         1 <0>         0.1256
     44 H9          2.7165   -3.7447    2.6923 H         1 <0>         0.1264
     45 H10         2.6343   -5.8299    4.0129 H         1 <0>         0.1227
     46 H11         0.5364   -6.9739    4.4603 H         1 <0>         0.1222
     47 H12        -1.6153   -6.0942    3.6091 H         1 <0>         0.1517
     48 H13        -1.7529    1.9564   -1.4875 H         1 <0>         0.1345
     49 H14        -4.0081    2.6526   -2.2167 H         1 <0>         0.1197
     50 H15        -5.9842    1.3471   -1.6689 H         1 <0>         0.1193
     51 H16        -5.8191   -0.7431   -0.3501 H         1 <0>         0.1299
     52 H17        -6.0819   -5.0031    2.2935 H         1 <0>         0.4244
     53 H18        -5.8747   -2.4718    1.8101 H         1 <0>         0.0969
     54 H19        -5.6755   -3.4081    0.3006 H         1 <0>         0.0963
     55 H20        -0.1054   -3.5172   -0.4616 H         1 <0>         0.3444
     56 H21        -1.8838   -3.6387   -2.0422 H         1 <0>         0.0645
     57 H22        -1.2495   -2.1685   -2.8197 H         1 <0>         0.0818
     58 H23        -0.3126   -3.6808   -2.8776 H         1 <0>         0.0150
     59 H24        -0.5237    0.1905   -4.4538 H         1 <0>         0.0929
     60 H25         0.8707    0.9325   -3.6333 H         1 <0>         0.0448
     61 H26         0.8732   -0.8111   -3.9915 H         1 <0>         0.0400
@<TRIPOS>BOND
     1    1    2 1
     2    1   38 1
     3    1   39 1
     4    1   40 1
     5    2    9 1
     6    2   20 1
     7    2    3 1
     8    3    4 1
     9    3    5 1
    10    3   36 1
    11    5    6 1
    12    5    7 1
    13    5   34 1
    14    7    8 1
    15    7   41 1
    16    7   42 1
    17    8    9 1
    18    8   10 1
    19    8   43 1
    20   10   18 1
    21   10   11 1
    22   11   16 ar
    23   11   12 ar
    24   12   13 ar
    25   12   44 1
    26   13   14 ar
    27   13   45 1
    28   14   15 ar
    29   14   46 1
    30   15   16 ar
    31   15   47 1
    32   16   17 1
    33   17   29 ar
    34   17   18 ar
    35   18   19 ar
    36   19   27 ar
    37   19   20 1
    38   20   21 1
    39   21   26 ar
    40   21   22 ar
    41   22   23 ar
    42   22   48 1
    43   23   24 ar
    44   23   49 1
    45   24   25 ar
    46   24   50 1
    47   25   26 ar
    48   25   51 1
    49   26   27 1
    50   27   28 ar
    51   28   33 1
    52   28   29 ar
    53   29   30 1
    54   30   31 2
    55   30   32 am
    56   32   33 1
    57   32   52 1
    58   33   53 1
    59   33   54 1
    60   34   35 1
    61   34   55 1
    62   35   56 1
    63   35   57 1
    64   35   58 1
    65   36   37 1
    66   37   59 1
    67   37   60 1
    68   37   61 1
@<TRIPOS>MOLECULE
CHEMBL245733
   61    65     0     0     0
SMALL
USER_CHARGES

@<TRIPOS>ATOM
      1 C1          1.7543    1.9442   -1.0912 C.3       1 <0>        -0.1480
      2 C2          1.2778    0.5961   -0.5468 C.3       1 <0>        -0.0927
      3 C3          1.2809   -0.4389   -1.6741 C.3       1 <0>        -0.1292
      4 C4          0.7705   -1.7783   -1.1336 C.3       1 <0>         0.1250
      5 N1          1.5783   -2.1557    0.0343 N.am      1 <0>        -0.6228
      6 C5          1.7165   -1.1955    1.1377 C.3       1 <0>         0.0790
      7 C6          2.2163    0.1374    0.5717 C.3       1 <0>        -0.1298
      8 C7          2.1806   -3.3600    0.0925 C.2       1 <0>         0.7176
      9 O1          2.1665   -4.0942   -0.8765 O.2       1 <0>        -0.5765
     10 N2          2.7986   -3.7503    1.2248 N.am      1 <0>        -0.6461
     11 C8          2.2809   -3.3440    2.5385 C.3       1 <0>         0.1045
     12 C9          3.4120   -2.6808    3.3306 C.3       1 <0>        -0.1525
     13 C10         4.6103   -3.6307    3.3936 C.3       1 <0>         0.1657
     14 C11         5.1143   -3.9135    1.9766 C.3       1 <0>        -0.1450
     15 C12         3.9992   -4.5953    1.1692 C.3       1 <0>         0.1419
     16 N3          5.6819   -3.0130    4.1786 N.pl3     1 <0>        -0.6909
     17 C13         6.6219   -3.8078    4.8128 C.ar      1 <0>         0.5730
     18 N4          6.5390   -5.1249    4.6938 N.ar      1 <0>        -0.5600
     19 C14         7.4184   -5.9206    5.2842 C.ar      1 <0>         0.2122
     20 C15         8.4370   -5.3640    6.0354 C.ar      1 <0>        -0.2054
     21 C16         8.4997   -3.9691    6.1436 C.ar      1 <0>         0.3237
     22 N5          7.5827   -3.2318    5.5175 N.ar      1 <0>        -0.5499
     23 C17         9.5695   -3.3244    6.9353 C.2       1 <0>        -0.1579
     24 C18        10.8985   -3.5969    6.8769 C.2       1 <0>         0.1140
     25 N6         11.5708   -2.8011    7.7536 N.pl3     1 <0>        -0.5828
     26 H1         12.5311   -2.8137    7.8899 H         1 <0>         0.4218
     27 C19        10.6908   -1.9746    8.4192 C.ar      1 <0>         0.0900
     28 C20         9.4020   -2.2572    7.9359 C.ar      1 <0>        -0.0685
     29 C21         8.3023   -1.5596    8.4317 C.ar      1 <0>        -0.0655
     30 C22         8.4864   -0.5910    9.3935 C.ar      1 <0>        -0.1399
     31 C23         9.7589   -0.3086    9.8688 C.ar      1 <0>        -0.0983
     32 C24        10.8546   -0.9964    9.3945 C.ar      1 <0>        -0.1259
     33 Cl1         9.6100   -6.3703    6.8261 Cl        1 <0>        -0.0456
     34 H2          2.7654    1.8402   -1.4849 H         1 <0>         0.0541
     35 H3          1.0861    2.2711   -1.8879 H         1 <0>         0.0562
     36 H4          1.7511    2.6818   -0.2887 H         1 <0>         0.0554
     37 H5          0.2669    0.7004   -0.1527 H         1 <0>         0.0716
     38 H6          0.6304   -0.1004   -2.4806 H         1 <0>         0.0761
     39 H7          2.2958   -0.5621   -2.0521 H         1 <0>         0.0670
     40 H8         -0.2741   -1.6792   -0.8387 H         1 <0>         0.0645
     41 H9          0.8637   -2.5430   -1.9047 H         1 <0>         0.0941
     42 H10         0.7490   -1.0488    1.6178 H         1 <0>         0.0675
     43 H11         2.4338   -1.5755    1.8652 H         1 <0>         0.1093
     44 H12         3.2224    0.0088    0.1726 H         1 <0>         0.0663
     45 H13         2.2315    0.8862    1.3637 H         1 <0>         0.0747
     46 H14         1.4634   -2.6354    2.4058 H         1 <0>         0.1008
     47 H15         1.9229   -4.2213    3.0774 H         1 <0>         0.0738
     48 H16         3.7073   -1.7549    2.8372 H         1 <0>         0.0790
     49 H17         3.0681   -2.4613    4.3414 H         1 <0>         0.0872
     50 H18         4.3079   -4.5659    3.8649 H         1 <0>         0.0976
     51 H19         5.3936   -2.9759    1.4959 H         1 <0>         0.0665
     52 H20         5.9821   -4.5714    2.0236 H         1 <0>         0.0822
     53 H21         3.7786   -5.5725    1.5988 H         1 <0>         0.0710
     54 H22         4.3159   -4.7126    0.1329 H         1 <0>         0.0879
     55 H23         5.7330   -2.0473    4.2542 H         1 <0>         0.4141
     56 H24         7.3403   -6.9928    5.1801 H         1 <0>         0.1765
     57 H25        11.3537   -4.3343    6.2324 H         1 <0>         0.1767
     58 H26         7.3106   -1.7771    8.0633 H         1 <0>         0.1210
     59 H27         7.6360   -0.0485    9.7794 H         1 <0>         0.1243
     60 H28         9.8912    0.4530   10.6231 H         1 <0>         0.1272
     61 H29        11.8409   -0.7672    9.7700 H         1 <0>         0.1223
@<TRIPOS>BOND
     1    1    2 1
     2    1   34 1
     3    1   35 1
     4    1   36 1
     5    2    7 1
     6    2    3 1
     7    2   37 1
     8    3    4 1
     9    3   38 1
    10    3   39 1
    11    4    5 1
    12    4   40 1
    13    4   41 1
    14    5    6 1
    15    5    8 am
    16    6    7 1
    17    6   42 1
    18    6   43 1
    19    7   44 1
    20    7   45 1
    21    8    9 2
    22    8   10 am
    23   10   15 1
    24   10   11 1
    25   11   12 1
    26   11   46 1
    27   11   47 1
    28   12   13 1
    29   12   48 1
    30   12   49 1
    31   13   14 1
    32   13   16 1
    33   13   50 1
    34   14   15 1
    35   14   51 1
    36   14   52 1
    37   15   53 1
    38   15   54 1
    39   16   17 1
    40   16   55 1
    41   17   22 ar
    42   17   18 ar
    43   18   19 ar
    44   19   20 ar
    45   19   56 1
    46   20   21 ar
    47   20   33 1
    48   21   22 ar
    49   21   23 1
    50   23   28 1
    51   23   24 2
    52   24   25 1
    53   24   57 1
    54   25   26 1
    55   25   27 1
    56   27   32 ar
    57   27   28 ar
    58   28   29 ar
    59   29   30 ar
    60   29   58 1
    61   30   31 ar
    62   30   59 1
    63   31   32 ar
    64   31   60 1
    65   32   61 1
@<TRIPOS>MOLECULE
CHEMBL245936
   61    65     0     0     0
SMALL
USER_CHARGES

@<TRIPOS>ATOM
      1 C1          0.6167    2.0954   -0.3831 C.3       1 <0>        -0.1657
      2 C2          0.4690    0.5741   -0.3139 C.3       1 <0>         0.1310
      3 N1          1.1182   -0.0331   -1.4784 N.am      1 <0>        -0.7486
      4 C3          1.1144   -1.3723   -1.6300 C.2       1 <0>         0.7072
      5 O1          0.6538   -2.0817   -0.7566 O.2       1 <0>        -0.5870
      6 N2          1.6212   -1.9252   -2.7498 N.am      1 <0>        -0.6307
      7 C4          2.2870   -1.0923   -3.7607 C.3       1 <0>         0.1184
      8 C5          1.6340   -1.3525   -5.1218 C.3       1 <0>        -0.1445
      9 C6          1.6690   -2.8529   -5.4214 C.3       1 <0>         0.1667
     10 C7          0.8746   -3.6069   -4.3525 C.3       1 <0>        -0.1418
     11 C8          1.5239   -3.3730   -2.9800 C.3       1 <0>         0.1335
     12 N3          1.0750   -3.1018   -6.7372 N.pl3     1 <0>        -0.6966
     13 C9          1.4316   -4.2301   -7.4553 C.ar      1 <0>         0.5697
     14 N4          2.3080   -5.0768   -6.9339 N.ar      1 <0>        -0.5729
     15 C10         2.6757   -6.1684   -7.5881 C.ar      1 <0>         0.1915
     16 C11         2.1352   -6.4253   -8.8333 C.ar      1 <0>        -0.2802
     17 C12         1.2114   -5.5137   -9.3602 C.ar      1 <0>         0.3033
     18 N5          0.8846   -4.4383   -8.6421 N.ar      1 <0>        -0.5577
     19 C13         0.6050   -5.7425  -10.6868 C.2       1 <0>        -0.1335
     20 C14         1.3062   -6.1253  -11.9217 C.ar      1 <0>        -0.0768
     21 C15         2.6426   -6.3774  -12.2327 C.ar      1 <0>        -0.0734
     22 C16         2.9898   -6.7224  -13.5090 C.ar      1 <0>        -0.1366
     23 C17         2.0219   -6.8233  -14.4983 C.ar      1 <0>        -0.0973
     24 C18         0.6966   -6.5780  -14.2122 C.ar      1 <0>        -0.1244
     25 C19         0.3210   -6.2262  -12.9189 C.ar      1 <0>         0.0988
     26 N6         -0.8960   -5.9282  -12.3431 N.pl3     1 <0>        -0.5793
     27 H1         -1.7452   -5.9238  -12.8118 H         1 <0>         0.4194
     28 C20        -0.7342   -5.6451  -11.0123 C.2       1 <0>         0.1741
     29 C21        -1.8185   -5.2885  -10.0756 C.ar      1 <0>        -0.0307
     30 C22        -1.8671   -5.8675   -8.8056 C.ar      1 <0>        -0.0759
     31 C23        -2.8826   -5.5295   -7.9355 C.ar      1 <0>        -0.1159
     32 C24        -3.8520   -4.6194   -8.3186 C.ar      1 <0>        -0.1071
     33 C25        -3.8103   -4.0423   -9.5755 C.ar      1 <0>        -0.1175
     34 C26        -2.7970   -4.3664  -10.4535 C.ar      1 <0>        -0.1016
     35 H2          1.6746    2.3578   -0.3873 H         1 <0>         0.0615
     36 H3          0.1471    2.4649   -1.2947 H         1 <0>         0.0609
     37 H4          0.1337    2.5471    0.4833 H         1 <0>         0.0764
     38 H5          0.9386    0.2045    0.5977 H         1 <0>         0.0672
     39 H6         -0.5890    0.3116   -0.3098 H         1 <0>         0.0652
     40 H7          1.5508    0.5287   -2.1403 H         1 <0>         0.3947
     41 H8          2.1767   -0.0403   -3.4976 H         1 <0>         0.0809
     42 H9          3.3450   -1.3503   -3.8076 H         1 <0>         0.0760
     43 H10         0.5995   -1.0098   -5.1004 H         1 <0>         0.0738
     44 H11         2.1802   -0.8140   -5.8962 H         1 <0>         0.0837
     45 H12         2.7023   -3.1998   -5.4181 H         1 <0>         0.0945
     46 H13        -0.1528   -3.2430   -4.3384 H         1 <0>         0.0659
     47 H14         0.8803   -4.6730   -4.5794 H         1 <0>         0.0814
     48 H15         2.5209   -3.8133   -2.9646 H         1 <0>         0.0704
     49 H16         0.9100   -3.8263   -2.2017 H         1 <0>         0.0962
     50 H17         0.4318   -2.4759   -7.1053 H         1 <0>         0.4109
     51 H18         3.3910   -6.8505   -7.1527 H         1 <0>         0.1665
     52 H19         2.4185   -7.3080   -9.3874 H         1 <0>         0.1419
     53 H20         3.4007   -6.2999  -11.4674 H         1 <0>         0.1233
     54 H21         4.0245   -6.9174  -13.7491 H         1 <0>         0.1257
     55 H22         2.3103   -7.0964  -15.5026 H         1 <0>         0.1282
     56 H23        -0.0489   -6.6585  -14.9895 H         1 <0>         0.1233
     57 H24        -1.1115   -6.5785   -8.5057 H         1 <0>         0.1173
     58 H25        -2.9214   -5.9765   -6.9531 H         1 <0>         0.1244
     59 H26        -4.6450   -4.3586   -7.6334 H         1 <0>         0.1245
     60 H27        -4.5703   -3.3329   -9.8681 H         1 <0>         0.1263
     61 H28        -2.7628   -3.9115  -11.4324 H         1 <0>         0.1212
@<TRIPOS>BOND
     1    1    2 1
     2    1   35 1
     3    1   36 1
     4    1   37 1
     5    2    3 1
     6    2   38 1
     7    2   39 1
     8    3    4 am
     9    3   40 1
    10    4    5 2
    11    4    6 am
    12    6   11 1
    13    6    7 1
    14    7    8 1
    15    7   41 1
    16    7   42 1
    17    8    9 1
    18    8   43 1
    19    8   44 1
    20    9   10 1
    21    9   12 1
    22    9   45 1
    23   10   11 1
    24   10   46 1
    25   10   47 1
    26   11   48 1
    27   11   49 1
    28   12   13 1
    29   12   50 1
    30   13   18 ar
    31   13   14 ar
    32   14   15 ar
    33   15   16 ar
    34   15   51 1
    35   16   17 ar
    36   16   52 1
    37   17   18 ar
    38   17   19 1
    39   19   28 2
    40   19   20 1
    41   20   25 ar
    42   20   21 ar
    43   21   22 ar
    44   21   53 1
    45   22   23 ar
    46   22   54 1
    47   23   24 ar
    48   23   55 1
    49   24   25 ar
    50   24   56 1
    51   25   26 1
    52   26   27 1
    53   26   28 1
    54   28   29 1
    55   29   34 ar
    56   29   30 ar
    57   30   31 ar
    58   30   57 1
    59   31   32 ar
    60   31   58 1
    61   32   33 ar
    62   32   59 1
    63   33   34 ar
    64   33   60 1
    65   34   61 1
@<TRIPOS>MOLECULE
CHEMBL571626
   45    48     0     0     0
SMALL
USER_CHARGES

@<TRIPOS>ATOM
      1 C1          1.3833    1.7328    0.6435 C.3       1 <0>        -0.6373
      2 S1          1.2175   -0.0711    0.5471 S.o2      1 <0>         2.5276
      3 O1          2.1788   -0.6965    1.3861 O.2       1 <0>        -1.0256
      4 O2         -0.1529   -0.4409    0.6147 O.2       1 <0>        -1.0257
      5 N1          1.6846   -0.4596   -0.9934 N.2       1 <0>        -1.0890
      6 C2          1.6764   -1.7899   -1.4095 C.ar      1 <0>         0.3129
      7 C3          1.2703   -2.7895   -0.5318 C.ar      1 <0>        -0.2708
      8 C4          1.2619   -4.1051   -0.9407 C.ar      1 <0>        -0.0048
      9 C5          1.6606   -4.4342   -2.2364 C.ar      1 <0>        -0.1968
     10 C6          2.0670   -3.4299   -3.1152 C.ar      1 <0>        -0.0371
     11 C7          2.0689   -2.1151   -2.7036 C.ar      1 <0>        -0.1931
     12 C8          1.6528   -5.8484   -2.6784 C.ar      1 <0>         0.3029
     13 C9          2.0561   -6.1899   -3.9733 C.ar      1 <0>        -0.2840
     14 C10         2.0325   -7.5228   -4.3405 C.ar      1 <0>         0.1818
     15 N2          1.6320   -8.4296   -3.4628 N.ar      1 <0>        -0.5831
     16 C11         1.2551   -8.0780   -2.2420 C.ar      1 <0>         0.5560
     17 N3          1.2671   -6.8144   -1.8473 N.ar      1 <0>        -0.5691
     18 N4          0.8430   -9.0583   -1.3543 N.pl3     1 <0>        -0.6459
     19 C12         0.9378  -10.4081   -1.7095 C.ar      1 <0>         0.1981
     20 C13         2.0408  -10.8636   -2.4205 C.ar      1 <0>        -0.0939
     21 C14         2.1340  -12.1953   -2.7708 C.ar      1 <0>        -0.0749
     22 C15         1.1252  -13.0797   -2.4129 C.ar      1 <0>         0.0858
     23 C16         0.0226  -12.6248   -1.7022 C.ar      1 <0>        -0.0914
     24 C17        -0.0683  -11.2943   -1.3463 C.ar      1 <0>        -0.1331
     25 N5          1.2198  -14.4335   -2.7701 N.pl3     1 <0>        -0.2311
     26 C18         0.3039  -15.3998   -2.4883 C.2       1 <0>        -0.0527
     27 C19         0.7950  -16.5461   -3.0155 C.2       1 <0>        -0.0471
     28 N6          1.9648  -16.2334   -3.5836 N.2       1 <0>        -0.2691
     29 N7          2.1854  -14.9762   -3.4259 N.2       1 <0>        -0.0806
     30 H1          2.4194    2.0130    0.4536 H         1 <0>         0.1163
     31 H2          0.7386    2.1973   -0.1026 H         1 <0>         0.1163
     32 H3          1.0916    2.0718    1.6375 H         1 <0>         0.1032
     33 H4          0.9617   -2.5342    0.4712 H         1 <0>         0.1063
     34 H5          0.9471   -4.8811   -0.2587 H         1 <0>         0.1152
     35 H6          2.3761   -3.6824   -4.1188 H         1 <0>         0.1125
     36 H7          2.3793   -1.3367   -3.3849 H         1 <0>         0.1181
     37 H8          2.3781   -5.4303   -4.6702 H         1 <0>         0.1449
     38 H9          2.3371   -7.8209   -5.3328 H         1 <0>         0.1639
     39 H10         0.4888   -8.8089   -0.4865 H         1 <0>         0.4250
     40 H11         2.8252  -10.1756   -2.6995 H         1 <0>         0.1441
     41 H12         2.9915  -12.5495   -3.3236 H         1 <0>         0.1433
     42 H13        -0.7619  -13.3130   -1.4241 H         1 <0>         0.1361
     43 H14        -0.9237  -10.9415   -0.7892 H         1 <0>         0.1399
     44 H15        -0.6257  -15.2773   -1.9524 H         1 <0>         0.1925
     45 H16         0.3329  -17.5218   -2.9833 H         1 <0>         0.1933
@<TRIPOS>BOND
     1    1    2 1
     2    1   30 1
     3    1   31 1
     4    1   32 1
     5    2    3 2
     6    2    4 2
     7    2    5 1
     8    5    6 1
     9    6   11 ar
    10    6    7 ar
    11    7    8 ar
    12    7   33 1
    13    8    9 ar
    14    8   34 1
    15    9   10 ar
    16    9   12 1
    17   10   11 ar
    18   10   35 1
    19   11   36 1
    20   12   17 ar
    21   12   13 ar
    22   13   14 ar
    23   13   37 1
    24   14   15 ar
    25   14   38 1
    26   15   16 ar
    27   16   17 ar
    28   16   18 1
    29   18   19 1
    30   18   39 1
    31   19   24 ar
    32   19   20 ar
    33   20   21 ar
    34   20   40 1
    35   21   22 ar
    36   21   41 1
    37   22   23 ar
    38   22   25 1
    39   23   24 ar
    40   23   42 1
    41   24   43 1
    42   25   29 1
    43   25   26 1
    44   26   27 2
    45   26   44 1
    46   27   28 1
    47   27   45 1
    48   28   29 2
@<TRIPOS>MOLECULE
CHEMBL1087421
   34    36     0     0     0
SMALL
USER_CHARGES

@<TRIPOS>ATOM
      1 C1          0.0794    1.2615   -0.5271 C.3       1 <0>         0.0135
      2 O1          0.0495   -0.1670   -0.5490 O.3       1 <0>        -0.2814
      3 C2         -1.1637   -0.7605   -0.4079 C.ar      1 <0>         0.2225
      4 C3         -2.3036    0.0214   -0.2570 C.ar      1 <0>        -0.2008
      5 C4         -3.5315   -0.5800   -0.1141 C.ar      1 <0>         0.0224
      6 C5         -3.6329   -1.9747   -0.1206 C.ar      1 <0>        -0.1927
      7 C6         -2.4912   -2.7567   -0.2716 C.ar      1 <0>         0.0078
      8 C7         -1.2615   -2.1472   -0.4205 C.ar      1 <0>        -0.0888
      9 Cl1         0.1666   -3.1146   -0.6167 Cl        1 <0>        -0.0102
     10 C8         -4.9700   -2.5882    0.0361 C.2       1 <0>         0.4494
     11 N1         -6.0353   -1.8737   -0.1877 N.pl3     1 <0>        -0.5557
     12 C9         -5.9562   -0.4816   -0.6176 C.3       1 <0>         0.0624
     13 C10        -4.7858    0.2376    0.0507 C.3       1 <0>        -0.1162
     14 C11        -5.0960   -4.0062    0.4445 C.ar      1 <0>        -0.1445
     15 C12        -6.1634   -4.7759   -0.0190 C.ar      1 <0>        -0.0525
     16 C13        -6.2763   -6.0962    0.3637 C.ar      1 <0>        -0.0936
     17 C14        -5.3328   -6.6587    1.2070 C.ar      1 <0>         0.0204
     18 C15        -4.2706   -5.8992    1.6710 C.ar      1 <0>        -0.0401
     19 C16        -4.1450   -4.5784    1.2890 C.ar      1 <0>        -0.0362
     20 Cl2        -3.0924   -6.6116    2.7283 Cl        1 <0>        -0.0040
     21 Cl3        -5.4815   -8.3210    1.6850 Cl        1 <0>         0.0002
     22 H1          1.1064    1.6054   -0.6495 H         1 <0>         0.1209
     23 H2         -0.5333    1.6503   -1.3405 H         1 <0>         0.0702
     24 H3         -0.3123    1.6186    0.4254 H         1 <0>         0.0705
     25 H4         -2.2244    1.0985   -0.2516 H         1 <0>         0.1634
     26 H5         -2.5676   -3.8340   -0.2766 H         1 <0>         0.1621
     27 H6         -5.8252   -0.4486   -1.6992 H         1 <0>         0.1236
     28 H7         -6.8843    0.0265   -0.3556 H         1 <0>         0.1396
     29 H8         -4.9977    0.3675    1.1119 H         1 <0>         0.1146
     30 H9         -4.6466    1.2138   -0.4137 H         1 <0>         0.1328
     31 H10        -6.9004   -4.3385   -0.6762 H         1 <0>         0.1521
     32 H11        -7.1023   -6.6925    0.0052 H         1 <0>         0.1675
     33 H12        -3.3144   -3.9882    1.6471 H         1 <0>         0.1628
     34 H13        -6.9079   -2.2793   -0.0652 H         1 <0>         0.4380
@<TRIPOS>BOND
     1    1    2 1
     2    1   22 1
     3    1   23 1
     4    1   24 1
     5    2    3 1
     6    3    8 ar
     7    3    4 ar
     8    4    5 ar
     9    4   25 1
    10    5   13 1
    11    5    6 ar
    12    6    7 ar
    13    6   10 1
    14    7    8 ar
    15    7   26 1
    16    8    9 1
    17   10   11 2
    18   10   14 1
    19   11   12 1
    20   11   34 1
    21   12   13 1
    22   12   27 1
    23   12   28 1
    24   13   29 1
    25   13   30 1
    26   14   19 ar
    27   14   15 ar
    28   15   16 ar
    29   15   31 1
    30   16   17 ar
    31   16   32 1
    32   17   18 ar
    33   17   21 1
    34   18   19 ar
    35   18   20 1
    36   19   33 1
@<TRIPOS>MOLECULE
CHEMBL1087421__1
   33    35     0     0     0
SMALL
USER_CHARGES

@<TRIPOS>ATOM
      1 C1          0.0753    1.2718   -0.4929 C.3       1 <0>         0.0225
      2 O1          0.0486   -0.1568   -0.5141 O.3       1 <0>        -0.2994
      3 C2         -1.1644   -0.7528   -0.3814 C.ar      1 <0>         0.1622
      4 C3         -2.3070    0.0268   -0.2393 C.ar      1 <0>        -0.1955
      5 C4         -3.5346   -0.5771   -0.1050 C.ar      1 <0>        -0.0144
      6 C5         -3.6330   -1.9719   -0.1112 C.ar      1 <0>        -0.1374
      7 C6         -2.4887   -2.7517   -0.2535 C.ar      1 <0>        -0.0371
      8 C7         -1.2592   -2.1397   -0.3938 C.ar      1 <0>        -0.0777
      9 Cl1         0.1723   -3.1042   -0.5789 Cl        1 <0>        -0.0453
     10 C8         -4.9700   -2.5882    0.0361 C.2       1 <0>         0.2551
     11 N1         -6.0351   -1.8761   -0.1959 N.2       1 <0>        -0.4978
     12 C9         -5.9559   -0.4841   -0.6262 C.3       1 <0>         0.0411
     13 C10        -4.7918    0.2379    0.0502 C.3       1 <0>        -0.1134
     14 C11        -5.0960   -4.0062    0.4445 C.ar      1 <0>        -0.0359
     15 C12        -4.1478   -4.5770    1.2940 C.ar      1 <0>        -0.0828
     16 C13        -4.2696   -5.8978    1.6719 C.ar      1 <0>        -0.0987
     17 C14        -5.3307   -6.6582    1.2095 C.ar      1 <0>        -0.0190
     18 C15        -6.2755   -6.0971    0.3652 C.ar      1 <0>        -0.0354
     19 C16        -6.1662   -4.7741   -0.0142 C.ar      1 <0>        -0.0550
     20 Cl2        -7.6023   -7.0571   -0.2106 Cl        1 <0>        -0.0405
     21 Cl3        -5.4774   -8.3202    1.6888 Cl        1 <0>        -0.0413
     22 H1          1.1025    1.6177   -0.6080 H         1 <0>         0.1078
     23 H2         -0.5323    1.6587   -1.3110 H         1 <0>         0.0603
     24 H3         -0.3241    1.6286    0.4565 H         1 <0>         0.0605
     25 H4         -2.2301    1.1040   -0.2341 H         1 <0>         0.1447
     26 H5         -2.5627   -3.8291   -0.2582 H         1 <0>         0.1508
     27 H6         -5.8170   -0.4515   -1.7068 H         1 <0>         0.0850
     28 H7         -6.8869    0.0222   -0.3712 H         1 <0>         0.1037
     29 H8         -5.0117    0.3681    1.1098 H         1 <0>         0.0911
     30 H9         -4.6513    1.2142   -0.4139 H         1 <0>         0.0944
     31 H10        -3.3193   -3.9855    1.6548 H         1 <0>         0.1451
     32 H11        -3.5359   -6.3401    2.3294 H         1 <0>         0.1502
     33 H12        -6.9054   -4.3359   -0.6684 H         1 <0>         0.1521
@<TRIPOS>BOND
     1    1    2 1
     2    1   22 1
     3    1   23 1
     4    1   24 1
     5    2    3 1
     6    3    8 ar
     7    3    4 ar
     8    4    5 ar
     9    4   25 1
    10    5   13 1
    11    5    6 ar
    12    6    7 ar
    13    6   10 1
    14    7    8 ar
    15    7   26 1
    16    8    9 1
    17   10   11 2
    18   10   14 1
    19   11   12 1
    20   12   13 1
    21   12   27 1
    22   12   28 1
    23   13   29 1
    24   13   30 1
    25   14   19 ar
    26   14   15 ar
    27   15   16 ar
    28   15   31 1
    29   16   17 ar
    30   16   32 1
    31   17   18 ar
    32   17   21 1
    33   18   19 ar
    34   18   20 1
    35   19   33 1
@<TRIPOS>MOLECULE
CHEMBL507625
   70    74     0     0     0
SMALL
USER_CHARGES

@<TRIPOS>ATOM
      1 C1          3.8328   -0.1403   -0.2026 C.3       1 <0>        -0.1841
      2 C2          3.4425    0.4134    1.1692 C.3       1 <0>         0.0224
      3 C3          3.0556    1.8874    1.0330 C.3       1 <0>        -0.1842
      4 N1          2.3010   -0.3457    1.6970 N.4       1 <0>        -0.3800
      5 C4          1.9210    0.1939    3.0087 C.3       1 <0>        -0.0281
      6 C5          0.6609   -0.5206    3.5082 C.3       1 <0>         0.1019
      7 N2          0.9115   -1.9701    3.4975 N.pl3     1 <0>        -0.6430
      8 C6          1.4513   -2.5712    2.2680 C.3       1 <0>         0.1027
      9 C7          2.6741   -1.7600    1.8270 C.3       1 <0>        -0.0277
     10 C8          0.6436   -2.7550    4.6246 C.ar      1 <0>         0.2158
     11 C9          0.7771   -4.1357    4.5565 C.ar      1 <0>        -0.2000
     12 C10         0.5131   -4.9128    5.6681 C.ar      1 <0>        -0.0309
     13 C11         0.1137   -4.3152    6.8544 C.ar      1 <0>         0.1134
     14 C12        -0.0209   -2.9306    6.9251 C.ar      1 <0>         0.1467
     15 C13         0.2500   -2.1527    5.8120 C.ar      1 <0>        -0.2560
     16 O1         -0.4124   -2.3431    8.0874 O.3       1 <0>        -0.3102
     17 C14        -0.5292   -0.9189    8.0872 C.3       1 <0>         0.0292
     18 N3         -0.1551   -5.1052    7.9826 N.pl3     1 <0>        -0.6269
     19 C15         0.5674   -6.2666    8.2031 C.ar      1 <0>         0.6192
     20 N4          1.5888   -6.5408    7.4088 N.ar      1 <0>        -0.6029
     21 C16         2.3094   -7.6468    7.5866 C.ar      1 <0>         0.3830
     22 C17         1.9614   -8.5168    8.6364 C.ar      1 <0>        -0.2891
     23 C18         2.9153   -9.6240    8.5823 C.2       1 <0>        -0.1547
     24 C19         3.7433   -9.3736    7.5556 C.2       1 <0>         0.0366
     25 N5          3.3909   -8.1927    6.9515 N.pl3     1 <0>        -0.5698
     26 H1          3.8421   -7.8029    6.1865 H         1 <0>         0.4212
     27 C20         0.8704   -8.1861    9.4549 C.ar      1 <0>         0.5198
     28 N6          0.2115   -7.0589    9.2067 N.ar      1 <0>        -0.6125
     29 N7          0.4919   -9.0127   10.4993 N.pl3     1 <0>        -0.6374
     30 C21        -0.5389   -8.6300   11.3504 C.ar      1 <0>         0.2185
     31 C22        -1.6142   -7.9012   10.8601 C.ar      1 <0>        -0.1285
     32 C23        -2.6376   -7.5219   11.7055 C.ar      1 <0>        -0.0531
     33 C24        -2.6026   -7.8626   13.0471 C.ar      1 <0>        -0.1699
     34 C25        -1.5420   -8.5871   13.5550 C.ar      1 <0>         0.1535
     35 C26        -0.5001   -8.9836   12.7085 C.ar      1 <0>        -0.2017
     36 C27         0.6322   -9.7615   13.2403 C.2       1 <0>         0.5682
     37 O2          1.6115   -9.1883   13.6781 O.2       1 <0>        -0.5178
     38 N8          0.5831  -11.1083   13.2417 N.am      1 <0>        -0.8459
     39 F1         -1.5129   -8.9169   14.8648 F         1 <0>        -0.1268
     40 H2          2.9882   -0.0479   -0.8854 H         1 <0>         0.0818
     41 H3          4.6798    0.4230   -0.5943 H         1 <0>         0.1065
     42 H4          4.1084   -1.1904   -0.1056 H         1 <0>         0.0819
     43 H5          4.2872    0.3211    1.8520 H         1 <0>         0.1354
     44 H6          2.2110    1.9797    0.3503 H         1 <0>         0.0818
     45 H7          2.7776    2.2819    2.0104 H         1 <0>         0.0817
     46 H8          3.9026    2.4507    0.6414 H         1 <0>         0.1065
     47 H9          2.7342    0.0343    3.7168 H         1 <0>         0.1320
     48 H10         1.7218    1.2617    2.9185 H         1 <0>         0.1420
     49 H11         0.4339   -0.1957    4.5236 H         1 <0>         0.1231
     50 H12        -0.1767   -0.2888    2.8504 H         1 <0>         0.0873
     51 H13         1.7467   -3.6021    2.4635 H         1 <0>         0.1275
     52 H14         0.6935   -2.5465    1.4850 H         1 <0>         0.0869
     53 H15         3.0297   -2.1319    0.8662 H         1 <0>         0.1422
     54 H16         3.4644   -1.8604    2.5709 H         1 <0>         0.1322
     55 H17         1.0873   -4.6026    3.6334 H         1 <0>         0.1252
     56 H18         0.6175   -5.9863    5.6131 H         1 <0>         0.1466
     57 H19         0.1508   -1.0786    5.8661 H         1 <0>         0.1315
     58 H20         0.4365   -0.4751    7.8455 H         1 <0>         0.0538
     59 H21        -1.2653   -0.6149    7.3430 H         1 <0>         0.0559
     60 H22        -0.8482   -0.5804    9.0730 H         1 <0>         0.1055
     61 H23        -0.8468   -4.8382    8.6080 H         1 <0>         0.4282
     62 H24         2.9474  -10.4789    9.2415 H         1 <0>         0.1500
     63 H25         4.5637  -10.0065    7.2508 H         1 <0>         0.1822
     64 H26         0.9459   -9.8588   10.6371 H         1 <0>         0.4240
     65 H27        -1.6499   -7.6302    9.8152 H         1 <0>         0.1574
     66 H28        -3.4712   -6.9551   11.3178 H         1 <0>         0.1420
     67 H29        -3.4082   -7.5600   13.6996 H         1 <0>         0.1444
     68 H30        -0.1980  -11.5655   12.8925 H         1 <0>         0.4050
     69 H31         1.3287  -11.6205   13.5919 H         1 <0>         0.4085
     70 H32         1.5208   -0.2619    1.0627 H         1 <0>         0.4201
@<TRIPOS>BOND
     1    1    2 1
     2    1   40 1
     3    1   41 1
     4    1   42 1
     5    2    3 1
     6    2    4 1
     7    2   43 1
     8    3   44 1
     9    3   45 1
    10    3   46 1
    11    4    9 1
    12    4    5 1
    13    4   70 1
    14    5    6 1
    15    5   47 1
    16    5   48 1
    17    6    7 1
    18    6   49 1
    19    6   50 1
    20    7    8 1
    21    7   10 1
    22    8    9 1
    23    8   51 1
    24    8   52 1
    25    9   53 1
    26    9   54 1
    27   10   15 ar
    28   10   11 ar
    29   11   12 ar
    30   11   55 1
    31   12   13 ar
    32   12   56 1
    33   13   14 ar
    34   13   18 1
    35   14   15 ar
    36   14   16 1
    37   15   57 1
    38   16   17 1
    39   17   58 1
    40   17   59 1
    41   17   60 1
    42   18   19 1
    43   18   61 1
    44   19   28 ar
    45   19   20 ar
    46   20   21 ar
    47   21   25 1
    48   21   22 ar
    49   22   23 1
    50   22   27 ar
    51   23   24 2
    52   23   62 1
    53   24   25 1
    54   24   63 1
    55   25   26 1
    56   27   28 ar
    57   27   29 1
    58   29   30 1
    59   29   64 1
    60   30   35 ar
    61   30   31 ar
    62   31   32 ar
    63   31   65 1
    64   32   33 ar
    65   32   66 1
    66   33   34 ar
    67   33   67 1
    68   34   35 ar
    69   34   39 1
    70   35   36 1
    71   36   37 2
    72   36   38 am
    73   38   68 1
    74   38   69 1
@<TRIPOS>MOLECULE
CHEMBL507625__1
   69    73     0     0     0
SMALL
USER_CHARGES

@<TRIPOS>ATOM
      1 C1          0.1810    1.5870   -0.2344 C.3       1 <0>        -0.1465
      2 C2          0.1907    0.0571   -0.2449 C.3       1 <0>         0.0759
      3 C3          0.9460   -0.4397   -1.4792 C.3       1 <0>        -0.1875
      4 N1          0.8562   -0.4367    0.9681 N.3       1 <0>        -0.5299
      5 C4          2.2479    0.0290    1.0316 C.3       1 <0>         0.0330
      6 C5          2.8491   -0.3519    2.3887 C.3       1 <0>         0.1266
      7 N2          2.6671   -1.7973    2.5911 N.pl3     1 <0>        -0.6283
      8 C6          1.3210   -2.3614    2.4090 C.3       1 <0>         0.1275
      9 C7          0.7800   -1.9014    1.0511 C.3       1 <0>         0.0382
     10 C8          3.7461   -2.6142    2.9471 C.ar      1 <0>         0.2445
     11 C9          5.0291   -2.0854    3.0000 C.ar      1 <0>        -0.2166
     12 C10         6.0961   -2.8901    3.3513 C.ar      1 <0>        -0.0250
     13 C11         5.8877   -4.2281    3.6513 C.ar      1 <0>         0.0810
     14 C12         4.6017   -4.7608    3.5989 C.ar      1 <0>         0.1502
     15 C13         3.5326   -3.9517    3.2527 C.ar      1 <0>        -0.2700
     16 O1          4.3957   -6.0725    3.8928 O.3       1 <0>        -0.3160
     17 C14         3.0511   -6.5505    3.8186 C.3       1 <0>         0.0303
     18 N3          6.9720   -5.0448    4.0070 N.pl3     1 <0>        -0.6220
     19 C15         8.0365   -4.5128    4.7163 C.ar      1 <0>         0.6211
     20 N4          7.9490   -3.2688    5.1571 N.ar      1 <0>        -0.5978
     21 C16         8.9499   -2.7196    5.8430 C.ar      1 <0>         0.3870
     22 C17        10.1016   -3.4899    6.0888 C.ar      1 <0>        -0.2941
     23 C18        11.0108   -2.6337    6.8498 C.2       1 <0>        -0.1581
     24 C19        10.3893   -1.4549    7.0126 C.2       1 <0>         0.0359
     25 N5          9.1547   -1.4937    6.4144 N.pl3     1 <0>        -0.5709
     26 H1          8.5208   -0.7597    6.3985 H         1 <0>         0.4226
     27 C20        10.1512   -4.8056    5.6028 C.ar      1 <0>         0.5156
     28 N6          9.1031   -5.2727    4.9323 N.ar      1 <0>        -0.6149
     29 N7         11.2643   -5.5998    5.8206 N.pl3     1 <0>        -0.6399
     30 C21        11.2640   -6.9264    5.4041 C.ar      1 <0>         0.2235
     31 C22        10.5932   -7.2936    4.2451 C.ar      1 <0>        -0.1280
     32 C23        10.5936   -8.6108    3.8317 C.ar      1 <0>        -0.0526
     33 C24        11.2604   -9.5768    4.5661 C.ar      1 <0>        -0.1727
     34 C25        11.9338   -9.2326    5.7218 C.ar      1 <0>         0.1515
     35 C26        11.9469   -7.9001    6.1501 C.ar      1 <0>        -0.2050
     36 C27        12.6672   -7.5229    7.3785 C.2       1 <0>         0.5695
     37 O2         12.0938   -7.5449    8.4508 O.2       1 <0>        -0.5179
     38 N8         13.9618   -7.1535    7.3141 N.am      1 <0>        -0.8469
     39 F1         12.5828  -10.1791    6.4346 F         1 <0>        -0.1292
     40 H2          1.2060    1.9567   -0.2063 H         1 <0>         0.0561
     41 H3         -0.3128    1.9534   -1.1344 H         1 <0>         0.0607
     42 H4         -0.3571    1.9410    0.6449 H         1 <0>         0.0643
     43 H5         -0.8343   -0.3125   -0.2730 H         1 <0>         0.0837
     44 H6          1.9710   -0.0701   -1.4511 H         1 <0>         0.0576
     45 H7          0.9529   -1.5296   -1.4867 H         1 <0>         0.0551
     46 H8          0.4522   -0.0733   -2.3792 H         1 <0>         0.0627
     47 H9          2.8249   -0.4390    0.2340 H         1 <0>         0.0418
     48 H10         2.2748    1.1122    0.9131 H         1 <0>         0.0887
     49 H11         3.9123   -0.1118    2.3986 H         1 <0>         0.0870
     50 H12         2.3398    0.1958    3.1815 H         1 <0>         0.0689
     51 H13         1.3739   -3.4499    2.4324 H         1 <0>         0.0823
     52 H14         0.6648   -2.0068    3.2038 H         1 <0>         0.0690
     53 H15        -0.2577   -2.2181    0.9468 H         1 <0>         0.0839
     54 H16         1.3774   -2.3425    0.2532 H         1 <0>         0.0413
     55 H17         5.1932   -1.0439    2.7660 H         1 <0>         0.1242
     56 H18         7.0931   -2.4769    3.3918 H         1 <0>         0.1395
     57 H19         2.5341   -4.3617    3.2162 H         1 <0>         0.1311
     58 H20         3.0272   -7.6094    4.0761 H         1 <0>         0.0998
     59 H21         2.4280   -5.9924    4.5174 H         1 <0>         0.0551
     60 H22         2.6725   -6.4144    2.8055 H         1 <0>         0.0544
     61 H23         6.9761   -5.9818    3.7563 H         1 <0>         0.4245
     62 H24        11.9933   -2.8989    7.2113 H         1 <0>         0.1471
     63 H25        10.7993   -0.6037    7.5359 H         1 <0>         0.1798
     64 H26        12.0442   -5.2307    6.2638 H         1 <0>         0.4225
     65 H27        10.0697   -6.5472    3.6661 H         1 <0>         0.1590
     66 H28        10.0699   -8.8897    2.9293 H         1 <0>         0.1416
     67 H29        11.2537  -10.6044    4.2339 H         1 <0>         0.1426
     68 H30        14.4191   -7.1359    6.4589 H         1 <0>         0.4045
     69 H31        14.4361   -6.9051    8.1229 H         1 <0>         0.4073
@<TRIPOS>BOND
     1    1    2 1
     2    1   40 1
     3    1   41 1
     4    1   42 1
     5    2    3 1
     6    2    4 1
     7    2   43 1
     8    3   44 1
     9    3   45 1
    10    3   46 1
    11    4    9 1
    12    4    5 1
    13    5    6 1
    14    5   47 1
    15    5   48 1
    16    6    7 1
    17    6   49 1
    18    6   50 1
    19    7    8 1
    20    7   10 1
    21    8    9 1
    22    8   51 1
    23    8   52 1
    24    9   53 1
    25    9   54 1
    26   10   15 ar
    27   10   11 ar
    28   11   12 ar
    29   11   55 1
    30   12   13 ar
    31   12   56 1
    32   13   14 ar
    33   13   18 1
    34   14   15 ar
    35   14   16 1
    36   15   57 1
    37   16   17 1
    38   17   58 1
    39   17   59 1
    40   17   60 1
    41   18   19 1
    42   18   61 1
    43   19   28 ar
    44   19   20 ar
    45   20   21 ar
    46   21   25 1
    47   21   22 ar
    48   22   23 1
    49   22   27 ar
    50   23   24 2
    51   23   62 1
    52   24   25 1
    53   24   63 1
    54   25   26 1
    55   27   28 ar
    56   27   29 1
    57   29   30 1
    58   29   64 1
    59   30   35 ar
    60   30   31 ar
    61   31   32 ar
    62   31   65 1
    63   32   33 ar
    64   32   66 1
    65   33   34 ar
    66   33   67 1
    67   34   35 ar
    68   34   39 1
    69   35   36 1
    70   36   37 2
    71   36   38 am
    72   38   68 1
    73   38   69 1
@<TRIPOS>MOLECULE
CHEMBL437747
   70    74     0     0     0
SMALL
USER_CHARGES

@<TRIPOS>ATOM
      1 C1         -0.3107    0.7355    1.5241 C.3       1 <0>        -0.1527
      2 C2         -0.0971   -0.6959    1.0277 C.3       1 <0>        -0.1365
      3 C3          0.3885   -0.6655   -0.4228 C.3       1 <0>         0.0866
      4 N1          0.5931   -2.0361   -0.8981 N.pl3     1 <0>        -0.4290
      5 C4          1.7568   -2.7671   -0.8044 C.2       1 <0>         0.0419
      6 C5          1.4860   -3.9967   -1.3798 C.2       1 <0>         0.1013
      7 N2          0.2061   -3.9733   -1.7917 N.2       1 <0>        -0.4645
      8 C6         -0.3251   -2.8173   -1.5031 C.2       1 <0>         0.2120
      9 C7         -1.7460   -2.4149   -1.8034 C.3       1 <0>        -0.0086
     10 C8         -2.7097   -3.3710   -1.0947 C.3       1 <0>        -0.1396
     11 C9         -4.1482   -3.0057   -1.4674 C.3       1 <0>        -0.0050
     12 N3         -4.3247   -3.1186   -2.9202 N.4       1 <0>        -0.5067
     13 C10        -3.4553   -2.1537   -3.6041 C.3       1 <0>        -0.0050
     14 C11        -1.9902   -2.4862   -3.3135 C.3       1 <0>        -0.1403
     15 C12         2.4316   -5.1290   -1.5170 C.ar      1 <0>         0.0142
     16 C13         3.7854   -4.8859   -1.7489 C.ar      1 <0>        -0.0662
     17 C14         4.6621   -5.9434   -1.8759 C.ar      1 <0>        -0.0960
     18 C15         4.2007   -7.2449   -1.7738 C.ar      1 <0>        -0.0242
     19 C16         2.8571   -7.4926   -1.5439 C.ar      1 <0>        -0.0327
     20 C17         1.9722   -6.4410   -1.4090 C.ar      1 <0>        -0.0700
     21 Cl1         2.2862   -9.1273   -1.4182 Cl        1 <0>        -0.0429
     22 Cl2         5.3096   -8.5708   -1.9347 Cl        1 <0>        -0.0410
     23 C18         3.0331   -2.3285   -0.2114 C.ar      1 <0>         0.2848
     24 C19         3.5111   -1.0292   -0.4308 C.ar      1 <0>        -0.2930
     25 C20         4.7120   -0.6643    0.1462 C.ar      1 <0>         0.2060
     26 N4          5.3716   -1.5451    0.8841 N.ar      1 <0>        -0.5587
     27 C21         4.8975   -2.7677    1.0760 C.ar      1 <0>         0.5797
     28 N5          3.7494   -3.1598    0.5474 N.ar      1 <0>        -0.5484
     29 N6          5.6194   -3.6561    1.8542 N.pl3     1 <0>        -0.6873
     30 C22         6.8900   -3.2402    2.4531 C.3       1 <0>         0.1611
     31 C23         8.0199   -3.4367    1.4404 C.3       1 <0>        -0.1267
     32 C24         9.3468   -3.0023    2.0659 C.3       1 <0>        -0.1164
     33 C25         9.6248   -3.8476    3.3106 C.3       1 <0>        -0.1242
     34 C26         8.4950   -3.6510    4.3233 C.3       1 <0>        -0.1149
     35 C27         7.1680   -4.0854    3.6978 C.3       1 <0>        -0.1282
     36 H1          0.6295    1.2840    1.4671 H         1 <0>         0.0632
     37 H2         -1.0572    1.2285    0.9013 H         1 <0>         0.0596
     38 H3         -0.6567    0.7139    2.5575 H         1 <0>         0.0680
     39 H4          0.6493   -1.1888    1.6505 H         1 <0>         0.0720
     40 H5         -1.0374   -1.2443    1.0847 H         1 <0>         0.0680
     41 H6         -0.3579   -0.1725   -1.0457 H         1 <0>         0.0991
     42 H7          1.3288   -0.1171   -0.4798 H         1 <0>         0.1067
     43 H8         -1.9181   -1.3968   -1.4541 H         1 <0>         0.1019
     44 H9         -2.5018   -4.3946   -1.4063 H         1 <0>         0.1052
     45 H10        -2.5802   -3.2849   -0.0159 H         1 <0>         0.1130
     46 H11        -4.8369   -3.6844   -0.9644 H         1 <0>         0.1385
     47 H12        -4.3551   -1.9821   -1.1552 H         1 <0>         0.1315
     48 H13        -4.0856   -4.0533   -3.2154 H         1 <0>         0.4314
     49 H14        -3.6325   -2.2034   -4.6784 H         1 <0>         0.1385
     50 H15        -3.6770   -1.1482   -3.2463 H         1 <0>         0.1314
     51 H16        -1.3464   -1.7676   -3.8207 H         1 <0>         0.1135
     52 H17        -1.7673   -3.4915   -3.6712 H         1 <0>         0.1054
     53 H18         4.1466   -3.8713   -1.8292 H         1 <0>         0.1246
     54 H19         5.7103   -5.7558   -2.0559 H         1 <0>         0.1430
     55 H20         0.9258   -6.6345   -1.2247 H         1 <0>         0.1433
     56 H21         2.9541   -0.3301   -1.0370 H         1 <0>         0.1395
     57 H22         5.1093    0.3288   -0.0028 H         1 <0>         0.1723
     58 H23         5.2841   -4.5541    2.0028 H         1 <0>         0.4138
     59 H24         6.8324   -2.1884    2.7336 H         1 <0>         0.0931
     60 H25         8.0775   -4.4884    1.1599 H         1 <0>         0.0625
     61 H26         7.8218   -2.8345    0.5537 H         1 <0>         0.0657
     62 H27        10.1517   -3.1423    1.3444 H         1 <0>         0.0658
     63 H28         9.2892   -1.9506    2.3464 H         1 <0>         0.0652
     64 H29         9.6824   -4.8993    3.0301 H         1 <0>         0.0634
     65 H30        10.5702   -3.5381    3.7562 H         1 <0>         0.0663
     66 H31         8.6930   -4.2532    5.2100 H         1 <0>         0.0693
     67 H32         8.4374   -2.5993    4.6038 H         1 <0>         0.0658
     68 H33         6.3631   -3.9454    4.4193 H         1 <0>         0.0680
     69 H34         7.2256   -5.1372    3.4173 H         1 <0>         0.0691
     70 H35        -5.2871   -2.9291   -3.1568 H         1 <0>         0.4334
@<TRIPOS>BOND
     1    1    2 1
     2    1   36 1
     3    1   37 1
     4    1   38 1
     5    2    3 1
     6    2   39 1
     7    2   40 1
     8    3    4 1
     9    3   41 1
    10    3   42 1
    11    4    8 1
    12    4    5 1
    13    5    6 2
    14    5   23 1
    15    6    7 1
    16    6   15 1
    17    7    8 2
    18    8    9 1
    19    9   14 1
    20    9   10 1
    21    9   43 1
    22   10   11 1
    23   10   44 1
    24   10   45 1
    25   11   12 1
    26   11   46 1
    27   11   47 1
    28   12   13 1
    29   12   48 1
    30   12   70 1
    31   13   14 1
    32   13   49 1
    33   13   50 1
    34   14   51 1
    35   14   52 1
    36   15   20 ar
    37   15   16 ar
    38   16   17 ar
    39   16   53 1
    40   17   18 ar
    41   17   54 1
    42   18   19 ar
    43   18   22 1
    44   19   20 ar
    45   19   21 1
    46   20   55 1
    47   23   28 ar
    48   23   24 ar
    49   24   25 ar
    50   24   56 1
    51   25   26 ar
    52   25   57 1
    53   26   27 ar
    54   27   28 ar
    55   27   29 1
    56   29   30 1
    57   29   58 1
    58   30   35 1
    59   30   31 1
    60   30   59 1
    61   31   32 1
    62   31   60 1
    63   31   61 1
    64   32   33 1
    65   32   62 1
    66   32   63 1
    67   33   34 1
    68   33   64 1
    69   33   65 1
    70   34   35 1
    71   34   66 1
    72   34   67 1
    73   35   68 1
    74   35   69 1
@<TRIPOS>MOLECULE
CHEMBL437747__1
   71    75     0     0     0
SMALL
USER_CHARGES

@<TRIPOS>ATOM
      1 C1          0.2312    1.4240    0.2875 C.3       1 <0>        -0.1593
      2 C2          0.1584   -0.1030    0.2247 C.3       1 <0>        -0.1476
      3 C3         -1.2945   -0.5362    0.0189 C.3       1 <0>         0.0704
      4 N1         -1.3554   -1.9940   -0.1129 N.pl3     1 <0>        -0.3732
      5 C4         -1.3482   -2.7079   -1.2910 C.2       1 <0>         0.1163
      6 C5         -1.4194   -4.0430   -0.9320 C.2       1 <0>         0.1492
      7 N2         -1.4660   -4.0951    0.4109 N.pl3     1 <0>        -0.4677
      8 C6         -1.4229   -2.8854    0.8972 C.cat     1 <0>         0.2973
      9 C7         -1.4487   -2.5370    2.3632 C.3       1 <0>        -0.0461
     10 C8         -0.0292   -2.6137    2.9328 C.3       1 <0>        -0.1525
     11 C9         -0.0735   -2.3368    4.4371 C.3       1 <0>        -0.0049
     12 N3         -0.9219   -3.3361    5.0974 N.4       1 <0>        -0.5103
     13 C10        -2.3009   -3.2204    4.6079 C.3       1 <0>        -0.0029
     14 C11        -2.3423   -3.5313    3.1102 C.3       1 <0>        -0.1551
     15 C12        -1.4407   -5.2005   -1.8566 C.ar      1 <0>        -0.0770
     16 C13        -2.2529   -5.1757   -2.9902 C.ar      1 <0>        -0.0232
     17 C14        -2.2695   -6.2559   -3.8482 C.ar      1 <0>        -0.1080
     18 C15        -1.4817   -7.3639   -3.5860 C.ar      1 <0>         0.0065
     19 C16        -0.6732   -7.3945   -2.4613 C.ar      1 <0>        -0.0441
     20 C17        -0.6446   -6.3159   -1.5994 C.ar      1 <0>        -0.0703
     21 Cl1         0.3109   -8.7879   -2.1390 Cl        1 <0>        -0.0203
     22 Cl2        -1.5075   -8.7196   -4.6700 Cl        1 <0>        -0.0122
     23 C18        -1.2792   -2.1606   -2.6579 C.ar      1 <0>         0.2551
     24 C19        -0.6706   -0.9211   -2.8990 C.ar      1 <0>        -0.2867
     25 C20        -0.6299   -0.4501   -4.1970 C.ar      1 <0>         0.2248
     26 N4         -1.1625   -1.1771   -5.1681 N.ar      1 <0>        -0.5379
     27 C21        -1.7323   -2.3462   -4.9133 C.ar      1 <0>         0.5896
     28 N5         -1.7900   -2.8395   -3.6866 N.ar      1 <0>        -0.5568
     29 N6         -2.2764   -3.0728   -5.9582 N.pl3     1 <0>        -0.6778
     30 C22        -2.2180   -2.5472   -7.3244 C.3       1 <0>         0.1549
     31 C23        -3.3994   -1.6037   -7.5588 C.3       1 <0>        -0.1258
     32 C24        -3.3384   -1.0548   -8.9856 C.3       1 <0>        -0.1177
     33 C25        -3.4064   -2.2143   -9.9815 C.3       1 <0>        -0.1259
     34 C26        -2.2250   -3.1578   -9.7471 C.3       1 <0>        -0.1164
     35 C27        -2.2860   -3.7067   -8.3203 C.3       1 <0>        -0.1283
     36 H1          1.2662    1.7327    0.4341 H         1 <0>         0.0815
     37 H2         -0.1446    1.8443   -0.6453 H         1 <0>         0.0723
     38 H3         -0.3762    1.7828    1.1184 H         1 <0>         0.0678
     39 H4          0.7657   -0.4618   -0.6063 H         1 <0>         0.0886
     40 H5          0.5342   -0.5233    1.1575 H         1 <0>         0.0768
     41 H6         -1.8917   -0.2236    0.8754 H         1 <0>         0.1262
     42 H7         -1.6871   -0.0729   -0.8863 H         1 <0>         0.1363
     43 H8         -1.8400   -1.5278    2.4911 H         1 <0>         0.1444
     44 H9          0.3800   -3.6086    2.7577 H         1 <0>         0.1036
     45 H10         0.5998   -1.8695    2.4441 H         1 <0>         0.1286
     46 H11         0.9356   -2.3904    4.8458 H         1 <0>         0.1512
     47 H12        -0.4826   -1.3415    4.6110 H         1 <0>         0.1430
     48 H13        -0.5708   -4.2602    4.8953 H         1 <0>         0.4316
     49 H14        -2.9362   -3.9263    5.1428 H         1 <0>         0.1518
     50 H15        -2.6625   -2.2063    4.7782 H         1 <0>         0.1439
     51 H16        -3.3667   -3.4431    2.7484 H         1 <0>         0.1331
     52 H17        -1.9811   -4.5453    2.9388 H         1 <0>         0.0968
     53 H18        -2.8683   -4.3123   -3.1959 H         1 <0>         0.1770
     54 H19        -2.8985   -6.2373   -4.7259 H         1 <0>         0.1556
     55 H20        -0.0103   -6.3382   -0.7256 H         1 <0>         0.1404
     56 H21        -0.2439   -0.3479   -2.0893 H         1 <0>         0.1496
     57 H22        -0.1688    0.5012   -4.4178 H         1 <0>         0.1843
     58 H23        -2.6964   -3.9300   -5.7859 H         1 <0>         0.4133
     59 H24        -1.2845   -2.0022   -7.4645 H         1 <0>         0.0987
     60 H25        -4.3330   -2.1487   -7.4188 H         1 <0>         0.0639
     61 H26        -3.3510   -0.7776   -6.8493 H         1 <0>         0.0650
     62 H27        -4.1801   -0.3826   -9.1526 H         1 <0>         0.0690
     63 H28        -2.4049   -0.5098   -9.1257 H         1 <0>         0.0672
     64 H29        -4.3400   -2.7593   -9.8415 H         1 <0>         0.0644
     65 H30        -3.3630   -1.8232  -10.9980 H         1 <0>         0.0702
     66 H31        -2.2734   -3.9839  -10.4566 H         1 <0>         0.0733
     67 H32        -1.2914   -2.6128   -9.8872 H         1 <0>         0.0679
     68 H33        -1.4443   -4.3789   -8.1533 H         1 <0>         0.0703
     69 H34        -3.2195   -4.2517   -8.1802 H         1 <0>         0.0705
     70 H35        -0.9061   -3.1831    6.0946 H         1 <0>         0.4454
     71 H36        -1.5195   -4.9080    0.9375 H         1 <0>         0.4600
@<TRIPOS>BOND
     1    1    2 1
     2    1   36 1
     3    1   37 1
     4    1   38 1
     5    2    3 1
     6    2   39 1
     7    2   40 1
     8    3    4 1
     9    3   41 1
    10    3   42 1
    11    4    8 1
    12    4    5 1
    13    5    6 2
    14    5   23 1
    15    6    7 1
    16    6   15 1
    17    7    8 2
    18    7   71 1
    19    8    9 1
    20    9   14 1
    21    9   10 1
    22    9   43 1
    23   10   11 1
    24   10   44 1
    25   10   45 1
    26   11   12 1
    27   11   46 1
    28   11   47 1
    29   12   13 1
    30   12   48 1
    31   12   70 1
    32   13   14 1
    33   13   49 1
    34   13   50 1
    35   14   51 1
    36   14   52 1
    37   15   20 ar
    38   15   16 ar
    39   16   17 ar
    40   16   53 1
    41   17   18 ar
    42   17   54 1
    43   18   19 ar
    44   18   22 1
    45   19   20 ar
    46   19   21 1
    47   20   55 1
    48   23   28 ar
    49   23   24 ar
    50   24   25 ar
    51   24   56 1
    52   25   26 ar
    53   25   57 1
    54   26   27 ar
    55   27   28 ar
    56   27   29 1
    57   29   30 1
    58   29   58 1
    59   30   35 1
    60   30   31 1
    61   30   59 1
    62   31   32 1
    63   31   60 1
    64   31   61 1
    65   32   33 1
    66   32   62 1
    67   32   63 1
    68   33   34 1
    69   33   64 1
    70   33   65 1
    71   34   35 1
    72   34   66 1
    73   34   67 1
    74   35   68 1
    75   35   69 1
@<TRIPOS>MOLECULE
CHEMBL189223
   40    43     0     0     0
SMALL
USER_CHARGES

@<TRIPOS>ATOM
      1 C1         -0.0166    1.3699    0.0096 C.ar      1 <0>        -0.0763
      2 C2          1.1572    2.1045    0.0023 C.ar      1 <0>        -0.1188
      3 C3          2.3694    1.4373   -0.0129 C.ar      1 <0>        -0.0385
      4 C4          2.3887    0.0627   -0.0205 C.ar      1 <0>        -0.1571
      5 C5          1.2179   -0.7095   -0.0134 C.ar      1 <0>         0.1243
      6 C6          0.0021   -0.0041    0.0020 C.ar      1 <0>        -0.1197
      7 N1          1.3955   -2.0811   -0.0225 N.pl3     1 <0>        -0.6085
      8 C7          2.6545   -2.6113   -0.0374 C.2       1 <0>         0.2613
      9 C8          3.0385   -3.9533   -0.0487 C.2       1 <0>        -0.1384
     10 C9          4.4277   -4.3004   -0.0638 C.1       1 <0>         0.2753
     11 N2          5.5298   -4.5757   -0.0757 N.1       1 <0>        -0.4135
     12 C10         2.0145   -5.0127   -0.0451 C.ar      1 <0>         0.3138
     13 C11         2.3877   -6.3651   -0.0505 C.ar      1 <0>        -0.2799
     14 C12         1.4023   -7.3159   -0.0470 C.ar      1 <0>         0.2045
     15 N3          0.1312   -6.9385   -0.0385 N.ar      1 <0>        -0.5769
     16 C13        -0.2016   -5.6556   -0.0335 C.ar      1 <0>         0.5848
     17 N4          0.7163   -4.7013   -0.0311 N.ar      1 <0>        -0.6057
     18 N5         -1.5405   -5.3051   -0.0252 N.pl3     1 <0>        -0.7023
     19 C14        -2.5705   -6.3470   -0.0221 C.3       1 <0>         0.1309
     20 C15        -3.9548   -5.6956   -0.0128 C.3       1 <0>         0.1201
     21 N6         -4.9847   -6.7374   -0.0097 N.pl3     1 <0>        -0.3817
     22 C16        -5.9884   -6.8755    0.8739 C.2       1 <0>         0.2595
     23 N7         -6.6890   -7.9261    0.5315 N.2       1 <0>        -0.5434
     24 C17        -6.1657   -8.4821   -0.5604 C.2       1 <0>         0.2040
     25 N8         -5.1233   -7.7868   -0.9327 N.2       1 <0>        -0.3145
     26 S1          3.6842   -1.1528   -0.0394 S.3       1 <0>         0.0782
     27 H1         -0.9648    1.8866    0.0260 H         1 <0>         0.1392
     28 H2          1.1270    3.1841    0.0081 H         1 <0>         0.1432
     29 H3          3.2952    1.9934   -0.0191 H         1 <0>         0.1412
     30 H4         -0.9301   -0.5494    0.0080 H         1 <0>         0.1329
     31 H5          0.6237   -2.6686   -0.0180 H         1 <0>         0.4324
     32 H6          3.4294   -6.6500   -0.0577 H         1 <0>         0.1430
     33 H7          1.6584   -8.3651   -0.0513 H         1 <0>         0.1700
     34 H8         -1.7970   -4.3696   -0.0215 H         1 <0>         0.4108
     35 H9         -2.4654   -6.9644   -0.9142 H         1 <0>         0.0857
     36 H10        -2.4555   -6.9688    0.8657 H         1 <0>         0.0755
     37 H11        -4.0599   -5.0781    0.8793 H         1 <0>         0.1085
     38 H12        -4.0697   -5.0737   -0.9006 H         1 <0>         0.0965
     39 H13        -6.1822   -6.2319    1.7192 H         1 <0>         0.2203
     40 H14        -6.5441   -9.3620   -1.0595 H         1 <0>         0.2195
@<TRIPOS>BOND
     1    1    6 ar
     2    1    2 ar
     3    1   27 1
     4    2    3 ar
     5    2   28 1
     6    3    4 ar
     7    3   29 1
     8    4   26 1
     9    4    5 ar
    10    5    6 ar
    11    5    7 1
    12    6   30 1
    13    7    8 1
    14    7   31 1
    15    8    9 2
    16    8   26 1
    17    9   10 1
    18    9   12 1
    19   10   11 3
    20   12   17 ar
    21   12   13 ar
    22   13   14 ar
    23   13   32 1
    24   14   15 ar
    25   14   33 1
    26   15   16 ar
    27   16   17 ar
    28   16   18 1
    29   18   19 1
    30   18   34 1
    31   19   20 1
    32   19   35 1
    33   19   36 1
    34   20   21 1
    35   20   37 1
    36   20   38 1
    37   21   25 1
    38   21   22 1
    39   22   23 2
    40   22   39 1
    41   23   24 1
    42   24   25 2
    43   24   40 1
@<TRIPOS>MOLECULE
CHEMBL189223__1
   40    43     0     0     0
SMALL
USER_CHARGES

@<TRIPOS>ATOM
      1 C1         -0.0166    1.3699    0.0096 C.ar      1 <0>        -0.0797
      2 C2          1.1572    2.1045    0.0023 C.ar      1 <0>        -0.1187
      3 C3          2.3694    1.4373   -0.0129 C.ar      1 <0>        -0.0395
      4 C4          2.3887    0.0627   -0.0205 C.ar      1 <0>        -0.1879
      5 C5          1.2179   -0.7095   -0.0134 C.ar      1 <0>         0.1190
      6 C6          0.0021   -0.0041    0.0020 C.ar      1 <0>        -0.1204
      7 N1          1.3955   -2.0811   -0.0225 N.pl3     1 <0>        -0.6287
      8 C7          2.6545   -2.6113   -0.0374 C.2       1 <0>         0.2423
      9 C8          3.0385   -3.9533   -0.0487 C.2       1 <0>        -0.1372
     10 C9          2.0433   -4.9829   -0.0452 C.1       1 <0>         0.2714
     11 N2          1.2537   -5.7996   -0.0424 N.1       1 <0>        -0.4237
     12 C10         4.4680   -4.3104   -0.0642 C.ar      1 <0>         0.3092
     13 C11         4.8666   -5.6555   -0.0815 C.ar      1 <0>        -0.2812
     14 C12         6.2058   -5.9409   -0.0954 C.ar      1 <0>         0.2012
     15 N3          7.0848   -4.9482   -0.0923 N.ar      1 <0>        -0.5779
     16 C13         6.6886   -3.6836   -0.0759 C.ar      1 <0>         0.5849
     17 N4          5.4049   -3.3593   -0.0676 N.ar      1 <0>        -0.5808
     18 N5          7.6395   -2.6778   -0.0728 N.pl3     1 <0>        -0.7006
     19 C14         9.0646   -3.0170   -0.0875 C.3       1 <0>         0.1313
     20 C15         9.8948   -1.7318   -0.0805 C.3       1 <0>         0.1194
     21 N6         11.3199   -2.0710   -0.0953 N.pl3     1 <0>        -0.3809
     22 C16        12.2408   -1.6436   -0.9764 C.2       1 <0>         0.2593
     23 N7         13.3925   -2.1697   -0.6473 N.2       1 <0>        -0.5443
     24 C17        13.2474   -2.9353    0.4335 C.2       1 <0>         0.2029
     25 N8         11.9967   -2.9025    0.8120 N.2       1 <0>        -0.3143
     26 S1          3.6842   -1.1528   -0.0394 S.3       1 <0>         0.1822
     27 H1         -0.9648    1.8866    0.0260 H         1 <0>         0.1376
     28 H2          1.1270    3.1841    0.0081 H         1 <0>         0.1415
     29 H3          3.2952    1.9934   -0.0191 H         1 <0>         0.1400
     30 H4         -0.9301   -0.5494    0.0080 H         1 <0>         0.1311
     31 H5          0.6237   -2.6686   -0.0180 H         1 <0>         0.4167
     32 H6          4.1333   -6.4484   -0.0833 H         1 <0>         0.1394
     33 H7          6.5434   -6.9667   -0.1085 H         1 <0>         0.1679
     34 H8          7.3622   -1.7483   -0.0608 H         1 <0>         0.4138
     35 H9          9.3060   -3.6103    0.7944 H         1 <0>         0.0847
     36 H10         9.2920   -3.5916   -0.9854 H         1 <0>         0.0744
     37 H11         9.6534   -1.1385   -0.9624 H         1 <0>         0.1091
     38 H12         9.6674   -1.1572    0.8174 H         1 <0>         0.0972
     39 H13        12.0610   -0.9818   -1.8108 H         1 <0>         0.2203
     40 H14        14.0362   -3.4895    0.9205 H         1 <0>         0.2189
@<TRIPOS>BOND
     1    1    6 ar
     2    1    2 ar
     3    1   27 1
     4    2    3 ar
     5    2   28 1
     6    3    4 ar
     7    3   29 1
     8    4   26 1
     9    4    5 ar
    10    5    6 ar
    11    5    7 1
    12    6   30 1
    13    7    8 1
    14    7   31 1
    15    8    9 2
    16    8   26 1
    17    9   10 1
    18    9   12 1
    19   10   11 3
    20   12   17 ar
    21   12   13 ar
    22   13   14 ar
    23   13   32 1
    24   14   15 ar
    25   14   33 1
    26   15   16 ar
    27   16   17 ar
    28   16   18 1
    29   18   19 1
    30   18   34 1
    31   19   20 1
    32   19   35 1
    33   19   36 1
    34   20   21 1
    35   20   37 1
    36   20   38 1
    37   21   25 1
    38   21   22 1
    39   22   23 2
    40   22   39 1
    41   23   24 1
    42   24   25 2
    43   24   40 1
@<TRIPOS>MOLECULE
CHEMBL1080582
   63    67     0     0     0
SMALL
USER_CHARGES

@<TRIPOS>ATOM
      1 C1         -0.0855    1.2497   -0.1643 C.ar      1 <0>        -0.0845
      2 C2          0.4257    0.7932    1.0372 C.ar      1 <0>        -0.1165
      3 C3          1.6483    0.1538    1.0715 C.ar      1 <0>        -0.0746
      4 C4          2.3680   -0.0317   -0.1074 C.ar      1 <0>        -0.0632
      5 C5          1.8481    0.4303   -1.3151 C.ar      1 <0>        -0.0761
      6 C6          0.6245    1.0684   -1.3375 C.ar      1 <0>        -0.1162
      7 C7          3.6828   -0.7178   -0.0769 C.2       1 <0>         0.1815
      8 C8          4.0282   -1.9110    0.7067 C.2       1 <0>        -0.1385
      9 C9          5.3292   -2.1981    0.4364 C.2       1 <0>         0.0285
     10 O1          5.7888   -1.2899   -0.4323 O.3       1 <0>        -0.0588
     11 N1          4.7553   -0.3782   -0.7480 N.2       1 <0>        -0.2574
     12 C10         6.1190   -3.3429    1.0165 C.3       1 <0>         0.0732
     13 N2          5.9786   -4.5224    0.1521 N.4       1 <0>        -0.3819
     14 C11         4.5791   -4.9648    0.1540 C.3       1 <0>        -0.0166
     15 C12         4.4113   -6.1431   -0.8077 C.3       1 <0>        -0.1415
     16 C13         5.3133   -7.2956   -0.3565 C.3       1 <0>        -0.1387
     17 C14         6.7614   -6.8018   -0.2907 C.3       1 <0>        -0.1448
     18 C15         6.8420   -5.5990    0.6519 C.3       1 <0>        -0.0067
     19 C16         3.1310   -2.6581    1.6175 C.ar      1 <0>         0.2594
     20 C17         1.8436   -3.0203    1.2072 C.ar      1 <0>        -0.2685
     21 C18         1.0422   -3.7169    2.0918 C.ar      1 <0>         0.2097
     22 N3          1.5124   -4.0191    3.2926 N.ar      1 <0>        -0.5503
     23 C19         2.7362   -3.6636    3.6555 C.ar      1 <0>         0.5753
     24 N4          3.5391   -3.0005    2.8381 N.ar      1 <0>        -0.5742
     25 N5          3.1886   -3.9989    4.9199 N.pl3     1 <0>        -0.6882
     26 C20         2.3176   -4.7374    5.8376 C.3       1 <0>         0.1599
     27 C21         1.4114   -3.7550    6.5823 C.3       1 <0>        -0.1280
     28 C22         0.5018   -4.5263    7.5407 C.3       1 <0>        -0.1172
     29 C23         1.3581   -5.2950    8.5490 C.3       1 <0>        -0.1254
     30 C24         2.2643   -6.2774    7.8044 C.3       1 <0>        -0.1156
     31 C25         3.1740   -5.5061    6.8460 C.3       1 <0>        -0.1266
     32 H1         -1.0447    1.7456   -0.1872 H         1 <0>         0.1351
     33 H2         -0.1328    0.9377    1.9502 H         1 <0>         0.1339
     34 H3          2.0467   -0.2019    2.0102 H         1 <0>         0.1204
     35 H4          2.4018    0.2896   -2.2316 H         1 <0>         0.1310
     36 H5          0.2206    1.4268   -2.2729 H         1 <0>         0.1370
     37 H6          7.1704   -3.0630    1.0813 H         1 <0>         0.1612
     38 H7          5.7430   -3.5758    2.0127 H         1 <0>         0.1685
     39 H8          4.2979   -5.2749    1.1604 H         1 <0>         0.1253
     40 H9          3.9381   -4.1426   -0.1643 H         1 <0>         0.1255
     41 H10         3.3719   -6.4713   -0.8035 H         1 <0>         0.1133
     42 H11         4.6920   -5.8340   -1.8146 H         1 <0>         0.0903
     43 H12         5.0001   -7.6390    0.6294 H         1 <0>         0.0814
     44 H13         5.2402   -8.1164   -1.0699 H         1 <0>         0.0973
     45 H14         7.4017   -7.6007    0.0831 H         1 <0>         0.1163
     46 H15         7.0908   -6.5063   -1.2868 H         1 <0>         0.0906
     47 H16         7.8718   -5.2451    0.7012 H         1 <0>         0.1368
     48 H17         6.5126   -5.8956    1.6477 H         1 <0>         0.1308
     49 H18         1.4842   -2.7612    0.2223 H         1 <0>         0.1482
     50 H19         0.0430   -4.0116    1.8071 H         1 <0>         0.1770
     51 H20         4.0824   -3.7448    5.1984 H         1 <0>         0.4129
     52 H21         1.7051   -5.4392    5.2715 H         1 <0>         0.0950
     53 H22         2.0239   -3.0532    7.1484 H         1 <0>         0.0626
     54 H23         0.8013   -3.2074    5.8640 H         1 <0>         0.0661
     55 H24        -0.1438   -3.8264    8.0712 H         1 <0>         0.0676
     56 H25        -0.1107   -5.2281    6.9746 H         1 <0>         0.0662
     57 H26         1.9706   -4.5932    9.1151 H         1 <0>         0.0638
     58 H27         0.7101   -5.8445    9.2318 H         1 <0>         0.0683
     59 H28         2.8744   -6.8250    8.5227 H         1 <0>         0.0707
     60 H29         1.6518   -6.9791    7.2383 H         1 <0>         0.0665
     61 H30         3.8196   -6.2060    6.3154 H         1 <0>         0.0666
     62 H31         3.7865   -4.8043    7.4120 H         1 <0>         0.0693
     63 H32         6.2522   -4.2827   -0.7891 H         1 <0>         0.4269
@<TRIPOS>BOND
     1    1    6 ar
     2    1    2 ar
     3    1   32 1
     4    2    3 ar
     5    2   33 1
     6    3    4 ar
     7    3   34 1
     8    4    5 ar
     9    4    7 1
    10    5    6 ar
    11    5   35 1
    12    6   36 1
    13    7   11 2
    14    7    8 1
    15    8    9 2
    16    8   19 1
    17    9   10 1
    18    9   12 1
    19   10   11 1
    20   12   13 1
    21   12   37 1
    22   12   38 1
    23   13   18 1
    24   13   14 1
    25   13   63 1
    26   14   15 1
    27   14   39 1
    28   14   40 1
    29   15   16 1
    30   15   41 1
    31   15   42 1
    32   16   17 1
    33   16   43 1
    34   16   44 1
    35   17   18 1
    36   17   45 1
    37   17   46 1
    38   18   47 1
    39   18   48 1
    40   19   24 ar
    41   19   20 ar
    42   20   21 ar
    43   20   49 1
    44   21   22 ar
    45   21   50 1
    46   22   23 ar
    47   23   24 ar
    48   23   25 1
    49   25   26 1
    50   25   51 1
    51   26   31 1
    52   26   27 1
    53   26   52 1
    54   27   28 1
    55   27   53 1
    56   27   54 1
    57   28   29 1
    58   28   55 1
    59   28   56 1
    60   29   30 1
    61   29   57 1
    62   29   58 1
    63   30   31 1
    64   30   59 1
    65   30   60 1
    66   31   61 1
    67   31   62 1
@<TRIPOS>MOLECULE
CHEMBL364637
   43    46     0     0     0
SMALL
USER_CHARGES

@<TRIPOS>ATOM
      1 C1         -0.0166    1.3699    0.0096 C.ar      1 <0>        -0.0764
      2 C2          1.1572    2.1045    0.0023 C.ar      1 <0>        -0.1198
      3 C3          2.3694    1.4373   -0.0129 C.ar      1 <0>        -0.0388
      4 C4          2.3887    0.0627   -0.0205 C.ar      1 <0>        -0.1573
      5 C5          1.2179   -0.7095   -0.0134 C.ar      1 <0>         0.1254
      6 C6          0.0021   -0.0041    0.0020 C.ar      1 <0>        -0.1199
      7 N1          1.3955   -2.0811   -0.0225 N.pl3     1 <0>        -0.6087
      8 C7          2.6545   -2.6113   -0.0374 C.2       1 <0>         0.2607
      9 C8          3.0385   -3.9533   -0.0487 C.2       1 <0>        -0.1373
     10 C9          4.4277   -4.3004   -0.0638 C.1       1 <0>         0.2764
     11 N2          5.5298   -4.5757   -0.0757 N.1       1 <0>        -0.4154
     12 C10         2.0145   -5.0127   -0.0451 C.ar      1 <0>         0.3125
     13 C11         2.3877   -6.3651   -0.0505 C.ar      1 <0>        -0.2842
     14 C12         1.4023   -7.3159   -0.0470 C.ar      1 <0>         0.2041
     15 N3          0.1312   -6.9385   -0.0385 N.ar      1 <0>        -0.5766
     16 C13        -0.2016   -5.6556   -0.0335 C.ar      1 <0>         0.5836
     17 N4          0.7163   -4.7013   -0.0311 N.ar      1 <0>        -0.6079
     18 N5         -1.5405   -5.3051   -0.0252 N.pl3     1 <0>        -0.7019
     19 C14        -2.5705   -6.3470   -0.0221 C.3       1 <0>         0.1482
     20 C15        -3.9548   -5.6956   -0.0128 C.3       1 <0>        -0.0816
     21 C16        -5.0143   -6.7673   -0.0096 C.ar      1 <0>         0.1307
     22 C17        -5.9826   -6.7677    0.9769 C.ar      1 <0>        -0.1672
     23 C18        -6.9526   -7.7581    0.9708 C.ar      1 <0>        -0.0724
     24 C19        -6.9123   -8.7152   -0.0318 C.ar      1 <0>        -0.1750
     25 C20        -5.9137   -8.6506   -0.9847 C.ar      1 <0>         0.1050
     26 N6         -5.0100   -7.6906   -0.9509 N.ar      1 <0>        -0.4789
     27 S1          3.6842   -1.1528   -0.0394 S.3       1 <0>         0.0753
     28 H1         -0.9648    1.8866    0.0260 H         1 <0>         0.1389
     29 H2          1.1270    3.1841    0.0081 H         1 <0>         0.1427
     30 H3          3.2952    1.9934   -0.0191 H         1 <0>         0.1408
     31 H4         -0.9301   -0.5494    0.0080 H         1 <0>         0.1332
     32 H5          0.6237   -2.6686   -0.0180 H         1 <0>         0.4330
     33 H6          3.4294   -6.6500   -0.0577 H         1 <0>         0.1412
     34 H7          1.6584   -8.3651   -0.0513 H         1 <0>         0.1684
     35 H8         -1.7970   -4.3696   -0.0215 H         1 <0>         0.4090
     36 H9         -2.4654   -6.9644   -0.9142 H         1 <0>         0.0819
     37 H10        -2.4555   -6.9688    0.8657 H         1 <0>         0.0670
     38 H11        -4.0599   -5.0781    0.8793 H         1 <0>         0.0857
     39 H12        -4.0697   -5.0737   -0.9006 H         1 <0>         0.0901
     40 H13        -5.9832   -6.0064    1.7429 H         1 <0>         0.1351
     41 H14        -7.7212   -7.7837    1.7290 H         1 <0>         0.1359
     42 H15        -7.6519   -9.5015   -0.0672 H         1 <0>         0.1364
     43 H16        -5.8754   -9.3923   -1.7688 H         1 <0>         0.1580
@<TRIPOS>BOND
     1    1    6 ar
     2    1    2 ar
     3    1   28 1
     4    2    3 ar
     5    2   29 1
     6    3    4 ar
     7    3   30 1
     8    4   27 1
     9    4    5 ar
    10    5    6 ar
    11    5    7 1
    12    6   31 1
    13    7    8 1
    14    7   32 1
    15    8    9 2
    16    8   27 1
    17    9   10 1
    18    9   12 1
    19   10   11 3
    20   12   17 ar
    21   12   13 ar
    22   13   14 ar
    23   13   33 1
    24   14   15 ar
    25   14   34 1
    26   15   16 ar
    27   16   17 ar
    28   16   18 1
    29   18   19 1
    30   18   35 1
    31   19   20 1
    32   19   36 1
    33   19   37 1
    34   20   21 1
    35   20   38 1
    36   20   39 1
    37   21   26 ar
    38   21   22 ar
    39   22   23 ar
    40   22   40 1
    41   23   24 ar
    42   23   41 1
    43   24   25 ar
    44   24   42 1
    45   25   26 ar
    46   25   43 1
@<TRIPOS>MOLECULE
CHEMBL364637__1
   43    46     0     0     0
SMALL
USER_CHARGES

@<TRIPOS>ATOM
      1 C1         -0.0166    1.3699    0.0096 C.ar      1 <0>        -0.0802
      2 C2          1.1572    2.1045    0.0023 C.ar      1 <0>        -0.1195
      3 C3          2.3694    1.4373   -0.0129 C.ar      1 <0>        -0.0394
      4 C4          2.3887    0.0627   -0.0205 C.ar      1 <0>        -0.1885
      5 C5          1.2179   -0.7095   -0.0134 C.ar      1 <0>         0.1195
      6 C6          0.0021   -0.0041    0.0020 C.ar      1 <0>        -0.1211
      7 N1          1.3955   -2.0811   -0.0225 N.pl3     1 <0>        -0.6293
      8 C7          2.6545   -2.6113   -0.0374 C.2       1 <0>         0.2406
      9 C8          3.0385   -3.9533   -0.0487 C.2       1 <0>        -0.1359
     10 C9          2.0433   -4.9829   -0.0452 C.1       1 <0>         0.2725
     11 N2          1.2537   -5.7996   -0.0424 N.1       1 <0>        -0.4256
     12 C10         4.4680   -4.3104   -0.0642 C.ar      1 <0>         0.3079
     13 C11         4.8666   -5.6555   -0.0815 C.ar      1 <0>        -0.2856
     14 C12         6.2058   -5.9409   -0.0954 C.ar      1 <0>         0.2008
     15 N3          7.0848   -4.9482   -0.0923 N.ar      1 <0>        -0.5777
     16 C13         6.6886   -3.6836   -0.0759 C.ar      1 <0>         0.5837
     17 N4          5.4049   -3.3593   -0.0676 N.ar      1 <0>        -0.5830
     18 N5          7.6395   -2.6778   -0.0728 N.pl3     1 <0>        -0.7002
     19 C14         9.0646   -3.0170   -0.0875 C.3       1 <0>         0.1486
     20 C15         9.8948   -1.7318   -0.0805 C.3       1 <0>        -0.0822
     21 C16        11.3608   -2.0808   -0.0957 C.ar      1 <0>         0.1319
     22 C17        12.1783   -1.5536   -1.0777 C.ar      1 <0>        -0.1673
     23 C18        13.5254   -1.8809   -1.0827 C.ar      1 <0>        -0.0727
     24 C19        14.0020   -2.7300   -0.0953 C.ar      1 <0>        -0.1760
     25 C20        13.1246   -3.2182    0.8540 C.ar      1 <0>         0.1047
     26 N6         11.8498   -2.8811    0.8311 N.ar      1 <0>        -0.4788
     27 S1          3.6842   -1.1528   -0.0394 S.3       1 <0>         0.1842
     28 H1         -0.9648    1.8866    0.0260 H         1 <0>         0.1371
     29 H2          1.1270    3.1841    0.0081 H         1 <0>         0.1410
     30 H3          3.2952    1.9934   -0.0191 H         1 <0>         0.1399
     31 H4         -0.9301   -0.5494    0.0080 H         1 <0>         0.1306
     32 H5          0.6237   -2.6686   -0.0180 H         1 <0>         0.4162
     33 H6          4.1333   -6.4484   -0.0833 H         1 <0>         0.1376
     34 H7          6.5434   -6.9667   -0.1085 H         1 <0>         0.1663
     35 H8          7.3622   -1.7483   -0.0608 H         1 <0>         0.4120
     36 H9          9.3060   -3.6103    0.7944 H         1 <0>         0.0809
     37 H10         9.2920   -3.5916   -0.9854 H         1 <0>         0.0659
     38 H11         9.6534   -1.1385   -0.9624 H         1 <0>         0.0863
     39 H12         9.6674   -1.1572    0.8174 H         1 <0>         0.0908
     40 H13        11.7727   -0.8954   -1.8318 H         1 <0>         0.1353
     41 H14        14.1879   -1.4843   -1.8378 H         1 <0>         0.1354
     42 H15        15.0457   -3.0065   -0.0689 H         1 <0>         0.1358
     43 H16        13.4879   -3.8800    1.6263 H         1 <0>         0.1575
@<TRIPOS>BOND
     1    1    6 ar
     2    1    2 ar
     3    1   28 1
     4    2    3 ar
     5    2   29 1
     6    3    4 ar
     7    3   30 1
     8    4   27 1
     9    4    5 ar
    10    5    6 ar
    11    5    7 1
    12    6   31 1
    13    7    8 1
    14    7   32 1
    15    8    9 2
    16    8   27 1
    17    9   10 1
    18    9   12 1
    19   10   11 3
    20   12   17 ar
    21   12   13 ar
    22   13   14 ar
    23   13   33 1
    24   14   15 ar
    25   14   34 1
    26   15   16 ar
    27   16   17 ar
    28   16   18 1
    29   18   19 1
    30   18   35 1
    31   19   20 1
    32   19   36 1
    33   19   37 1
    34   20   21 1
    35   20   38 1
    36   20   39 1
    37   21   26 ar
    38   21   22 ar
    39   22   23 ar
    40   22   40 1
    41   23   24 ar
    42   23   41 1
    43   24   25 ar
    44   24   42 1
    45   25   26 ar
    46   25   43 1
@<TRIPOS>MOLECULE
CHEMBL370516
   48    51     0     0     0
SMALL
USER_CHARGES

@<TRIPOS>ATOM
      1 C1         -0.0173    1.4248    0.0099 C.3       1 <0>         0.0264
      2 O1          0.0021   -0.0041    0.0020 O.3       1 <0>        -0.3177
      3 C2          0.6258   -0.6184    1.0415 C.ar      1 <0>         0.1278
      4 C3          1.2022    0.1384    2.0513 C.ar      1 <0>        -0.2064
      5 C4          1.8353   -0.4884    3.1070 C.ar      1 <0>        -0.0713
      6 C5          1.8951   -1.8688    3.1577 C.ar      1 <0>        -0.1213
      7 C6          1.3218   -2.6253    2.1523 C.ar      1 <0>        -0.0717
      8 C7          0.6822   -2.0034    1.0976 C.ar      1 <0>        -0.1497
      9 C8          2.5867   -2.5500    4.3104 C.3       1 <0>        -0.0870
     10 C9          1.5771   -2.8076    5.4307 C.3       1 <0>         0.1438
     11 N1          2.2495   -3.4698    6.5513 N.pl3     1 <0>        -0.7022
     12 C10         1.5336   -3.8052    7.6874 C.ar      1 <0>         0.5828
     13 N2          0.2394   -3.5241    7.7413 N.ar      1 <0>        -0.5767
     14 C11        -0.4830   -3.8287    8.8106 C.ar      1 <0>         0.2050
     15 C12         0.1246   -4.4481    9.8831 C.ar      1 <0>        -0.2848
     16 C13         1.4954   -4.7344    9.8003 C.ar      1 <0>         0.3117
     17 N3          2.1579   -4.4029    8.6895 N.ar      1 <0>        -0.6087
     18 C14         2.1915   -5.3945   10.9187 C.2       1 <0>        -0.1377
     19 C15         3.5558   -5.6740   10.8241 C.2       1 <0>         0.2607
     20 N4          4.4138   -5.4128    9.7936 N.pl3     1 <0>        -0.6087
     21 C16         5.7464   -5.7705    9.8896 C.ar      1 <0>         0.1252
     22 C17         6.7555   -5.5775    8.9302 C.ar      1 <0>        -0.1199
     23 C18         8.0443   -5.9901    9.1688 C.ar      1 <0>        -0.0764
     24 C19         8.3925   -6.6076   10.3584 C.ar      1 <0>        -0.1196
     25 C20         7.4202   -6.8107   11.3218 C.ar      1 <0>        -0.0388
     26 C21         6.1305   -6.3985   11.0835 C.ar      1 <0>        -0.1573
     27 S1          4.6234   -6.4564   12.0223 S.3       1 <0>         0.0753
     28 C22         1.4684   -5.7493   12.1027 C.1       1 <0>         0.2763
     29 N5          0.8947   -6.0308   13.0419 N.1       1 <0>        -0.4153
     30 H1          1.0053    1.8021    0.0021 H         1 <0>         0.0560
     31 H2         -0.5445    1.7859   -0.8732 H         1 <0>         0.1015
     32 H3         -0.5275    1.7763    0.9067 H         1 <0>         0.0565
     33 H4          1.1564    1.2167    2.0118 H         1 <0>         0.1288
     34 H5          2.2842    0.1003    3.8934 H         1 <0>         0.1250
     35 H6          1.3701   -3.7035    2.1940 H         1 <0>         0.1299
     36 H7          0.2307   -2.5948    0.3148 H         1 <0>         0.1318
     37 H8          3.0056   -3.4983    3.9736 H         1 <0>         0.0788
     38 H9          3.3874   -1.9109    4.6827 H         1 <0>         0.0779
     39 H10         1.1582   -1.8593    5.7675 H         1 <0>         0.0698
     40 H11         0.7764   -3.4467    5.0584 H         1 <0>         0.0707
     41 H12         3.1963   -3.6733    6.4970 H         1 <0>         0.4094
     42 H13        -1.5367   -3.5938    8.8417 H         1 <0>         0.1696
     43 H14        -0.4417   -4.7063   10.7658 H         1 <0>         0.1416
     44 H15         4.0873   -4.9752    8.9918 H         1 <0>         0.4329
     45 H16         6.5146   -5.0987    7.9926 H         1 <0>         0.1332
     46 H17         8.8001   -5.8300    8.4141 H         1 <0>         0.1390
     47 H18         9.4096   -6.9269   10.5317 H         1 <0>         0.1428
     48 H19         7.6731   -7.2903   12.2558 H         1 <0>         0.1408
@<TRIPOS>BOND
     1    1    2 1
     2    1   30 1
     3    1   31 1
     4    1   32 1
     5    2    3 1
     6    3    8 ar
     7    3    4 ar
     8    4    5 ar
     9    4   33 1
    10    5    6 ar
    11    5   34 1
    12    6    7 ar
    13    6    9 1
    14    7    8 ar
    15    7   35 1
    16    8   36 1
    17    9   10 1
    18    9   37 1
    19    9   38 1
    20   10   11 1
    21   10   39 1
    22   10   40 1
    23   11   12 1
    24   11   41 1
    25   12   17 ar
    26   12   13 ar
    27   13   14 ar
    28   14   15 ar
    29   14   42 1
    30   15   16 ar
    31   15   43 1
    32   16   17 ar
    33   16   18 1
    34   18   19 2
    35   18   28 1
    36   19   27 1
    37   19   20 1
    38   20   21 1
    39   20   44 1
    40   21   26 ar
    41   21   22 ar
    42   22   23 ar
    43   22   45 1
    44   23   24 ar
    45   23   46 1
    46   24   25 ar
    47   24   47 1
    48   25   26 ar
    49   25   48 1
    50   26   27 1
    51   28   29 3
@<TRIPOS>MOLECULE
CHEMBL370516__1
   48    51     0     0     0
SMALL
USER_CHARGES

@<TRIPOS>ATOM
      1 C1         -0.0173    1.4248    0.0099 C.3       1 <0>         0.0266
      2 O1          0.0021   -0.0041    0.0020 O.3       1 <0>        -0.3181
      3 C2          0.6258   -0.6184    1.0415 C.ar      1 <0>         0.1267
      4 C3          1.2022    0.1384    2.0513 C.ar      1 <0>        -0.2065
      5 C4          1.8353   -0.4884    3.1070 C.ar      1 <0>        -0.0715
      6 C5          1.8951   -1.8688    3.1577 C.ar      1 <0>        -0.1199
      7 C6          1.3218   -2.6253    2.1523 C.ar      1 <0>        -0.0719
      8 C7          0.6822   -2.0034    1.0976 C.ar      1 <0>        -0.1499
      9 C8          2.5867   -2.5500    4.3104 C.3       1 <0>        -0.0876
     10 C9          1.5771   -2.8076    5.4307 C.3       1 <0>         0.1442
     11 N1          2.2495   -3.4698    6.5513 N.pl3     1 <0>        -0.7004
     12 C10         1.5336   -3.8052    7.6874 C.ar      1 <0>         0.5828
     13 N2          0.2394   -3.5241    7.7413 N.ar      1 <0>        -0.5778
     14 C11        -0.4830   -3.8287    8.8106 C.ar      1 <0>         0.2018
     15 C12         0.1246   -4.4481    9.8831 C.ar      1 <0>        -0.2863
     16 C13         1.4954   -4.7344    9.8003 C.ar      1 <0>         0.3073
     17 N3          2.1579   -4.4029    8.6895 N.ar      1 <0>        -0.5839
     18 C14         2.1915   -5.3945   10.9187 C.2       1 <0>        -0.1363
     19 C15         3.5558   -5.6740   10.8241 C.2       1 <0>         0.2407
     20 N4          4.3715   -6.2780   11.7386 N.pl3     1 <0>        -0.6293
     21 C16         5.7122   -6.4679   11.4572 C.ar      1 <0>         0.1193
     22 C17         6.6828   -7.0664   12.2793 C.ar      1 <0>        -0.1210
     23 C18         7.9863   -7.1848   11.8609 C.ar      1 <0>        -0.0801
     24 C19         8.3874   -6.7208   10.6194 C.ar      1 <0>        -0.1193
     25 C20         7.4538   -6.1274    9.7881 C.ar      1 <0>        -0.0394
     26 C21         6.1496   -6.0082   10.2063 C.ar      1 <0>        -0.1885
     27 S1          4.6755   -5.3397    9.4742 S.3       1 <0>         0.1838
     28 C22         1.4684   -5.7493   12.1027 C.1       1 <0>         0.2723
     29 N5          0.8947   -6.0308   13.0419 N.1       1 <0>        -0.4255
     30 H1          1.0053    1.8021    0.0021 H         1 <0>         0.0559
     31 H2         -0.5445    1.7859   -0.8732 H         1 <0>         0.1010
     32 H3         -0.5275    1.7763    0.9067 H         1 <0>         0.0563
     33 H4          1.1564    1.2167    2.0118 H         1 <0>         0.1284
     34 H5          2.2842    0.1003    3.8934 H         1 <0>         0.1253
     35 H6          1.3701   -3.7035    2.1940 H         1 <0>         0.1301
     36 H7          0.2307   -2.5948    0.3148 H         1 <0>         0.1314
     37 H8          3.0056   -3.4983    3.9736 H         1 <0>         0.0794
     38 H9          3.3874   -1.9109    4.6827 H         1 <0>         0.0785
     39 H10         1.1582   -1.8593    5.7675 H         1 <0>         0.0687
     40 H11         0.7764   -3.4467    5.0584 H         1 <0>         0.0697
     41 H12         3.1963   -3.6733    6.4970 H         1 <0>         0.4123
     42 H13        -1.5367   -3.5938    8.8417 H         1 <0>         0.1675
     43 H14        -0.4417   -4.7063   10.7658 H         1 <0>         0.1380
     44 H15         4.0091   -6.5745   12.5881 H         1 <0>         0.4162
     45 H16         6.4002   -7.4380   13.2532 H         1 <0>         0.1307
     46 H17         8.7118   -7.6484   12.5129 H         1 <0>         0.1372
     47 H18         9.4156   -6.8205   10.3042 H         1 <0>         0.1411
     48 H19         7.7481   -5.7598    8.8162 H         1 <0>         0.1399
@<TRIPOS>BOND
     1    1    2 1
     2    1   30 1
     3    1   31 1
     4    1   32 1
     5    2    3 1
     6    3    8 ar
     7    3    4 ar
     8    4    5 ar
     9    4   33 1
    10    5    6 ar
    11    5   34 1
    12    6    7 ar
    13    6    9 1
    14    7    8 ar
    15    7   35 1
    16    8   36 1
    17    9   10 1
    18    9   37 1
    19    9   38 1
    20   10   11 1
    21   10   39 1
    22   10   40 1
    23   11   12 1
    24   11   41 1
    25   12   17 ar
    26   12   13 ar
    27   13   14 ar
    28   14   15 ar
    29   14   42 1
    30   15   16 ar
    31   15   43 1
    32   16   17 ar
    33   16   18 1
    34   18   19 2
    35   18   28 1
    36   19   27 1
    37   19   20 1
    38   20   21 1
    39   20   44 1
    40   21   26 ar
    41   21   22 ar
    42   22   23 ar
    43   22   45 1
    44   23   24 ar
    45   23   46 1
    46   24   25 ar
    47   24   47 1
    48   25   26 ar
    49   25   48 1
    50   26   27 1
    51   28   29 3
@<TRIPOS>MOLECULE
CHEMBL204757
   56    59     0     0     0
SMALL
USER_CHARGES

@<TRIPOS>ATOM
      1 C1         -1.1246   -4.7999   -3.9564 C.3       1 <0>        -0.1760
      2 C2         -1.6745   -3.6409   -3.1657 C.2       1 <0>         0.5138
      3 O1         -2.1524   -2.6864   -3.7415 O.2       1 <0>        -0.5446
      4 N1         -1.6354   -3.6650   -1.8187 N.am      1 <0>        -0.6178
      5 C3         -1.0541   -4.8116   -1.1072 C.3       1 <0>         0.1065
      6 C4         -2.0778   -5.3337   -0.0941 C.3       1 <0>        -0.1168
      7 C5         -2.5186   -4.1861    0.8173 C.3       1 <0>        -0.1049
      8 C6         -3.1838   -3.0927   -0.0218 C.3       1 <0>        -0.1265
      9 C7         -2.1676   -2.5426   -1.0341 C.3       1 <0>         0.1118
     10 C8         -3.5002   -4.7034    1.8370 C.2       1 <0>         0.5089
     11 O2         -3.8160   -5.8743    1.8351 O.2       1 <0>        -0.4639
     12 N2         -4.0271   -3.8649    2.7512 N.am      1 <0>        -0.6629
     13 C9         -5.0130   -4.3183    3.6267 C.ar      1 <0>         0.3645
     14 C10        -5.6296   -3.4224    4.4901 C.ar      1 <0>        -0.1906
     15 C11        -6.6139   -3.8912    5.3598 C.ar      1 <0>         0.0201
     16 C12        -6.9374   -5.2518    5.3225 C.ar      1 <0>        -0.1880
     17 C13        -6.2778   -6.0754    4.4350 C.ar      1 <0>         0.1377
     18 N3         -5.3549   -5.5971    3.6220 N.ar      1 <0>        -0.4733
     19 C14        -7.3000   -2.9708    6.3007 C.ar      1 <0>         0.0324
     20 C15        -6.9801   -1.6088    6.3341 C.ar      1 <0>        -0.2080
     21 C16        -7.6391   -0.7850    7.2214 C.ar      1 <0>         0.1493
     22 N4         -8.5625   -1.2627    8.0346 N.ar      1 <0>        -0.5223
     23 C17        -8.8973   -2.5440    8.0376 C.ar      1 <0>         0.3946
     24 C18        -8.2839   -3.4396    7.1700 C.ar      1 <0>        -0.2089
     25 N5         -9.8770   -2.9971    8.9151 N.pl3     1 <0>        -0.6626
     26 C19       -10.5789   -2.0864    9.7096 C.ar      1 <0>         0.1630
     27 C20       -10.8491   -0.8101    9.2324 C.ar      1 <0>        -0.1188
     28 C21       -11.5434    0.0871   10.0198 C.ar      1 <0>        -0.1002
     29 C22       -11.9695   -0.2837   11.2821 C.ar      1 <0>        -0.1422
     30 C23       -11.7022   -1.5535   11.7602 C.ar      1 <0>        -0.0988
     31 C24       -11.0130   -2.4574   10.9760 C.ar      1 <0>        -0.1561
     32 H1         -1.2430   -4.6018   -5.0217 H         1 <0>         0.0931
     33 H2         -0.0669   -4.9277   -3.7260 H         1 <0>         0.0893
     34 H3         -1.6660   -5.7086   -3.6935 H         1 <0>         0.0897
     35 H4         -0.8113   -5.5993   -1.8203 H         1 <0>         0.0941
     36 H5         -0.1505   -4.4975   -0.5848 H         1 <0>         0.0743
     37 H6         -2.9438   -5.7309   -0.6237 H         1 <0>         0.0782
     38 H7         -1.6252   -6.1223    0.5069 H         1 <0>         0.0882
     39 H8         -1.6486   -3.7732    1.3279 H         1 <0>         0.1042
     40 H9         -4.0394   -3.5109   -0.5521 H         1 <0>         0.0760
     41 H10        -3.5184   -2.2862    0.6308 H         1 <0>         0.0803
     42 H11        -1.3529   -2.0473   -0.5059 H         1 <0>         0.0723
     43 H12        -2.6597   -1.8328   -1.6990 H         1 <0>         0.0984
     44 H13        -3.7204   -2.9460    2.8001 H         1 <0>         0.4176
     45 H14        -5.3510   -2.3789    4.4884 H         1 <0>         0.1409
     46 H15        -7.6941   -5.6521    5.9809 H         1 <0>         0.1393
     47 H16        -6.5232   -7.1266    4.4015 H         1 <0>         0.1640
     48 H17        -6.2258   -1.2081    5.6731 H         1 <0>         0.1371
     49 H18        -7.3960    0.2668    7.2518 H         1 <0>         0.1628
     50 H19        -8.5625   -4.4831    7.1717 H         1 <0>         0.1381
     51 H20       -10.0729   -3.9452    8.9757 H         1 <0>         0.4183
     52 H21       -10.5163   -0.5198    8.2468 H         1 <0>         0.1347
     53 H22       -11.7535    1.0797    9.6496 H         1 <0>         0.1231
     54 H23       -12.5120    0.4201   11.8960 H         1 <0>         0.1212
     55 H24       -12.0364   -1.8399   12.7465 H         1 <0>         0.1239
     56 H25       -10.8082   -3.4503   11.3484 H         1 <0>         0.1216
@<TRIPOS>BOND
     1    1    2 1
     2    1   32 1
     3    1   33 1
     4    1   34 1
     5    2    3 2
     6    2    4 am
     7    4    9 1
     8    4    5 1
     9    5    6 1
    10    5   35 1
    11    5   36 1
    12    6    7 1
    13    6   37 1
    14    6   38 1
    15    7    8 1
    16    7   10 1
    17    7   39 1
    18    8    9 1
    19    8   40 1
    20    8   41 1
    21    9   42 1
    22    9   43 1
    23   10   11 2
    24   10   12 am
    25   12   13 1
    26   12   44 1
    27   13   18 ar
    28   13   14 ar
    29   14   15 ar
    30   14   45 1
    31   15   16 ar
    32   15   19 1
    33   16   17 ar
    34   16   46 1
    35   17   18 ar
    36   17   47 1
    37   19   24 ar
    38   19   20 ar
    39   20   21 ar
    40   20   48 1
    41   21   22 ar
    42   21   49 1
    43   22   23 ar
    44   23   24 ar
    45   23   25 1
    46   24   50 1
    47   25   26 1
    48   25   51 1
    49   26   31 ar
    50   26   27 ar
    51   27   28 ar
    52   27   52 1
    53   28   29 ar
    54   28   53 1
    55   29   30 ar
    56   29   54 1
    57   30   31 ar
    58   30   55 1
    59   31   56 1
@<TRIPOS>MOLECULE
CHEMBL205078
   50    53     0     0     0
SMALL
USER_CHARGES

@<TRIPOS>ATOM
      1 C1         -2.6558    1.1656    0.5288 C.ar      1 <0>        -0.1230
      2 C2         -3.8542    1.8229    0.3304 C.ar      1 <0>        -0.1320
      3 C3         -4.8196    1.2707   -0.4945 C.ar      1 <0>         0.0780
      4 C4         -4.5858    0.0590   -1.1227 C.ar      1 <0>        -0.1327
      5 C5         -3.3887   -0.6015   -0.9276 C.ar      1 <0>        -0.0859
      6 C6         -2.4192   -0.0498   -0.1002 C.ar      1 <0>         0.1553
      7 N1         -1.2059   -0.7171    0.0988 N.pl3     1 <0>        -0.6635
      8 C7         -1.1821   -2.1049    0.1893 C.ar      1 <0>         0.3942
      9 C8          0.0368   -2.7682    0.2636 C.ar      1 <0>        -0.2075
     10 C9          0.0438   -4.1594    0.3538 C.ar      1 <0>         0.0331
     11 C10        -1.1851   -4.8291    0.3656 C.ar      1 <0>        -0.2068
     12 C11        -2.3505   -4.0970    0.2883 C.ar      1 <0>         0.1505
     13 N2         -2.3214   -2.7798    0.2092 N.ar      1 <0>        -0.5245
     14 C12         1.3212   -4.9108    0.4348 C.ar      1 <0>         0.0192
     15 C13         2.5495   -4.2411    0.4283 C.ar      1 <0>        -0.1880
     16 C14         3.7150   -4.9739    0.5050 C.ar      1 <0>         0.1381
     17 N3          3.6851   -6.2909    0.5835 N.ar      1 <0>        -0.4734
     18 C15         2.5464   -6.9658    0.5927 C.ar      1 <0>         0.3648
     19 C16         1.3282   -6.3025    0.5250 C.ar      1 <0>        -0.1907
     20 N4          2.5702   -8.3573    0.6771 N.am      1 <0>        -0.6632
     21 C17         3.7394   -9.0012    0.8638 C.2       1 <0>         0.5096
     22 O1          4.7809   -8.3799    0.8618 O.2       1 <0>        -0.4626
     23 C18         3.7525  -10.4933    1.0752 C.3       1 <0>        -0.1076
     24 C19         2.9455  -10.8402    2.3301 C.3       1 <0>        -0.1489
     25 C20         3.0298  -12.3480    2.5809 C.3       1 <0>         0.0621
     26 O2          4.4000  -12.7315    2.7139 O.3       1 <0>        -0.3802
     27 C21         5.1931  -12.4746    1.5533 C.3       1 <0>         0.0601
     28 C22         5.1957  -10.9718    1.2612 C.3       1 <0>        -0.1374
     29 F1         -5.9915    1.9149   -0.6864 F         1 <0>        -0.1408
     30 H1         -1.9015    1.5986    1.1690 H         1 <0>         0.1335
     31 H2         -4.0386    2.7680    0.8194 H         1 <0>         0.1381
     32 H3         -5.3403   -0.3700   -1.7654 H         1 <0>         0.1372
     33 H4         -3.2069   -1.5467   -1.4174 H         1 <0>         0.1388
     34 H5         -0.3812   -0.2119    0.1738 H         1 <0>         0.4201
     35 H6          0.9642   -2.2147    0.2512 H         1 <0>         0.1387
     36 H7         -1.2198   -5.9063    0.4341 H         1 <0>         0.1374
     37 H8         -3.3016   -4.6086    0.2966 H         1 <0>         0.1631
     38 H9          2.5845   -3.1636    0.3638 H         1 <0>         0.1396
     39 H10         4.6663   -4.4626    0.5005 H         1 <0>         0.1642
     40 H11         0.4010   -6.8560    0.5375 H         1 <0>         0.1408
     41 H12         1.7453   -8.8620    0.6013 H         1 <0>         0.4173
     42 H13         3.3130  -10.9881    0.2091 H         1 <0>         0.1020
     43 H14         3.3556  -10.3049    3.1864 H         1 <0>         0.0800
     44 H15         1.9041  -10.5528    2.1844 H         1 <0>         0.0786
     45 H16         2.4927  -12.5948    3.4968 H         1 <0>         0.0996
     46 H17         2.5828  -12.8816    1.7422 H         1 <0>         0.0547
     47 H18         6.2144  -12.8125    1.7289 H         1 <0>         0.1006
     48 H19         4.7744  -13.0098    0.7011 H         1 <0>         0.0531
     49 H20         5.7636  -10.7786    0.3511 H         1 <0>         0.0832
     50 H21         5.6513  -10.4392    2.0960 H         1 <0>         0.0828
@<TRIPOS>BOND
     1    1    6 ar
     2    1    2 ar
     3    1   30 1
     4    2    3 ar
     5    2   31 1
     6    3    4 ar
     7    3   29 1
     8    4    5 ar
     9    4   32 1
    10    5    6 ar
    11    5   33 1
    12    6    7 1
    13    7    8 1
    14    7   34 1
    15    8   13 ar
    16    8    9 ar
    17    9   10 ar
    18    9   35 1
    19   10   11 ar
    20   10   14 1
    21   11   12 ar
    22   11   36 1
    23   12   13 ar
    24   12   37 1
    25   14   19 ar
    26   14   15 ar
    27   15   16 ar
    28   15   38 1
    29   16   17 ar
    30   16   39 1
    31   17   18 ar
    32   18   19 ar
    33   18   20 1
    34   19   40 1
    35   20   21 am
    36   20   41 1
    37   21   22 2
    38   21   23 1
    39   23   28 1
    40   23   24 1
    41   23   42 1
    42   24   25 1
    43   24   43 1
    44   24   44 1
    45   25   26 1
    46   25   45 1
    47   25   46 1
    48   26   27 1
    49   27   28 1
    50   27   47 1
    51   27   48 1
    52   28   49 1
    53   28   50 1
@<TRIPOS>MOLECULE
CHEMBL7064
   25    28     0     0     0
SMALL
USER_CHARGES

@<TRIPOS>ATOM
      1 C1         -0.0166    1.3742    0.0096 C.ar      1 <0>        -0.0830
      2 C2          1.1706    2.0916    0.0021 C.ar      1 <0>        -0.1243
      3 C3          2.3823    1.4397   -0.0153 C.ar      1 <0>        -0.0569
      4 C4          2.4281    0.0410   -0.0258 C.ar      1 <0>        -0.1454
      5 C5          1.2170   -0.6851   -0.0143 C.ar      1 <0>         0.0500
      6 C6          0.0021   -0.0041    0.0020 C.ar      1 <0>        -0.1088
      7 C7          1.2506   -2.1591   -0.0199 C.2       1 <0>         0.0730
      8 C8          2.5639   -2.7742   -0.0443 C.ar      1 <0>        -0.1429
      9 C9          3.7793   -2.1038   -0.0604 C.ar      1 <0>        -0.1081
     10 C10         4.9294   -2.8876   -0.0855 C.ar      1 <0>        -0.0580
     11 C11         4.7889   -4.2709   -0.0911 C.ar      1 <0>        -0.1027
     12 C12         3.5603   -4.9095   -0.0724 C.ar      1 <0>        -0.0703
     13 C13         2.3922   -4.1530   -0.0476 C.ar      1 <0>         0.0737
     14 N1          1.0342   -4.3134   -0.0236 N.pl3     1 <0>        -0.4208
     15 H1          0.5868   -5.1740   -0.0178 H         1 <0>         0.4498
     16 N2          0.4180   -3.1700   -0.0087 N.2       1 <0>        -0.2006
     17 C14         3.7440   -0.6349   -0.0491 C.2       1 <0>         0.4424
     18 O1          4.7754    0.0120   -0.0592 O.2       1 <0>        -0.4413
     19 H2         -0.9607    1.8984    0.0260 H         1 <0>         0.1352
     20 H3          1.1437    3.1712    0.0097 H         1 <0>         0.1350
     21 H4          3.3001    2.0089   -0.0212 H         1 <0>         0.1415
     22 H5         -0.9260   -0.5563    0.0084 H         1 <0>         0.1375
     23 H6          5.9084   -2.4317   -0.1006 H         1 <0>         0.1458
     24 H7          5.6823   -4.8774   -0.1113 H         1 <0>         0.1405
     25 H8          3.5088   -5.9882   -0.0775 H         1 <0>         0.1387
@<TRIPOS>BOND
     1    1    6 ar
     2    1    2 ar
     3    1   19 1
     4    2    3 ar
     5    2   20 1
     6    3    4 ar
     7    3   21 1
     8    4   17 1
     9    4    5 ar
    10    5    6 ar
    11    5    7 1
    12    6   22 1
    13    7   16 2
    14    7    8 1
    15    8   13 ar
    16    8    9 ar
    17    9   10 ar
    18    9   17 1
    19   10   11 ar
    20   10   23 1
    21   11   12 ar
    22   11   24 1
    23   12   13 ar
    24   12   25 1
    25   13   14 1
    26   14   15 1
    27   14   16 1
    28   17   18 2
@<TRIPOS>MOLECULE
CHEMBL7064__1
   25    28     0     0     0
SMALL
USER_CHARGES

@<TRIPOS>ATOM
      1 C1         -0.0166    1.3716    0.0096 C.ar      1 <0>        -0.0800
      2 C2          1.1708    2.0918    0.0021 C.ar      1 <0>        -0.1245
      3 C3          2.3828    1.4428   -0.0127 C.ar      1 <0>        -0.0544
      4 C4          2.4320    0.0434   -0.0205 C.ar      1 <0>        -0.1405
      5 C5          1.2210   -0.6886   -0.0124 C.ar      1 <0>         0.0405
      6 C6          0.0021   -0.0041    0.0020 C.ar      1 <0>        -0.1261
      7 C7          1.2457   -2.1536   -0.0208 C.2       1 <0>         0.0504
      8 C8          2.4853   -2.7488   -0.0355 C.ar      1 <0>        -0.1585
      9 C9          3.7667   -2.0921   -0.0444 C.ar      1 <0>        -0.1299
     10 C10         4.8847   -2.9128   -0.0585 C.ar      1 <0>        -0.0238
     11 C11         4.7118   -4.2966   -0.0633 C.ar      1 <0>        -0.1212
     12 C12         3.5050   -4.9362   -0.0556 C.ar      1 <0>        -0.0231
     13 C13         2.3094   -4.1914   -0.0406 C.ar      1 <0>         0.0660
     14 N1          0.9988   -4.3425   -0.0297 N.2       1 <0>        -0.2551
     15 H1         -0.5846   -3.1031   -0.0098 H         1 <0>         0.4487
     16 N2          0.3807   -3.1981   -0.0186 N.pl3     1 <0>        -0.3308
     17 C14         3.7519   -0.6254   -0.0360 C.2       1 <0>         0.4405
     18 O1          4.7871    0.0179   -0.0431 O.2       1 <0>        -0.4447
     19 H2         -0.9611    1.8950    0.0259 H         1 <0>         0.1352
     20 H3          1.1418    3.1714    0.0076 H         1 <0>         0.1359
     21 H4          3.2994    2.0140   -0.0187 H         1 <0>         0.1430
     22 H5         -0.9262   -0.5560    0.0082 H         1 <0>         0.1296
     23 H6          5.8766   -2.4856   -0.0660 H         1 <0>         0.1446
     24 H7          5.6007   -4.9099   -0.0744 H         1 <0>         0.1377
     25 H8          3.4673   -6.0156   -0.0604 H         1 <0>         0.1406
@<TRIPOS>BOND
     1    1    6 ar
     2    1    2 ar
     3    1   19 1
     4    2    3 ar
     5    2   20 1
     6    3    4 ar
     7    3   21 1
     8    4   17 1
     9    4    5 ar
    10    5    6 ar
    11    5    7 1
    12    6   22 1
    13    7    8 2
    14    7   16 1
    15    8    9 ar
    16    8   13 ar
    17    9   10 ar
    18    9   17 1
    19   10   11 ar
    20   10   23 1
    21   11   12 ar
    22   11   24 1
    23   12   13 ar
    24   12   25 1
    25   13   14 2
    26   14   16 1
    27   15   16 1
    28   17   18 2
@<TRIPOS>MOLECULE
CHEMBL220227
   36    38     0     0     0
SMALL
USER_CHARGES

@<TRIPOS>ATOM
      1 C1         -0.0187    1.5258    0.0104 C.3       1 <0>        -0.1507
      2 C2          0.0021   -0.0041    0.0020 C.3       1 <0>        -0.0279
      3 C3         -1.4333   -0.5336    0.0129 C.3       1 <0>        -0.1509
      4 C4          0.7074   -0.4901   -1.2379 C.2       1 <0>         0.1088
      5 C5          1.8237   -1.2634   -1.2661 C.2       1 <0>        -0.2198
      6 C6          2.1524   -1.4881   -2.6794 C.2       1 <0>         0.1678
      7 N1          1.2466   -0.8589   -3.3870 N.2       1 <0>        -0.2996
      8 O1          0.3375   -0.2380   -2.4998 O.3       1 <0>        -0.0676
      9 C7          3.2926   -2.2769   -3.2058 C.ar      1 <0>        -0.0522
     10 C8          4.5094   -2.2859   -2.5260 C.ar      1 <0>        -0.0505
     11 C9          5.5672   -3.0215   -3.0191 C.ar      1 <0>        -0.1530
     12 C10         5.4214   -3.7507   -4.1883 C.ar      1 <0>         0.1226
     13 C11         4.2135   -3.7447   -4.8674 C.ar      1 <0>        -0.1537
     14 C12         3.1488   -3.0162   -4.3787 C.ar      1 <0>        -0.0520
     15 F1          6.4600   -4.4693   -4.6678 F         1 <0>        -0.1317
     16 C13         2.5683   -1.7815   -0.0936 C.ar      1 <0>         0.0316
     17 C14         3.2137   -0.9103    0.7896 C.ar      1 <0>        -0.1640
     18 C15         3.8953   -1.4346    1.8678 C.ar      1 <0>         0.1045
     19 N2          3.9432   -2.7377    2.0702 N.ar      1 <0>        -0.4815
     20 C16         3.3482   -3.5938    1.2612 C.ar      1 <0>         0.1056
     21 C17         2.6397   -3.1543    0.1626 C.ar      1 <0>        -0.1543
     22 H1          1.0039    1.9031    0.0027 H         1 <0>         0.0618
     23 H2         -0.5459    1.8868   -0.8726 H         1 <0>         0.0674
     24 H3         -0.5289    1.8773    0.9072 H         1 <0>         0.0748
     25 H4          0.5293   -0.3651    0.8851 H         1 <0>         0.1050
     26 H5         -1.9605   -0.1726   -0.8702 H         1 <0>         0.0673
     27 H6         -1.4185   -1.6235    0.0069 H         1 <0>         0.0615
     28 H7         -1.9435   -0.1821    0.9097 H         1 <0>         0.0745
     29 H8          4.6241   -1.7175   -1.6149 H         1 <0>         0.1358
     30 H9          6.5105   -3.0287   -2.4932 H         1 <0>         0.1445
     31 H10         4.1042   -4.3145   -5.7783 H         1 <0>         0.1457
     32 H11         2.2064   -3.0156   -4.9062 H         1 <0>         0.1408
     33 H12         3.1791    0.1572    0.6295 H         1 <0>         0.1361
     34 H13         4.3969   -0.7698    2.5554 H         1 <0>         0.1596
     35 H14         3.4131   -4.6524    1.4647 H         1 <0>         0.1590
     36 H15         2.1513   -3.8603   -0.4928 H         1 <0>         0.1346
@<TRIPOS>BOND
     1    1    2 1
     2    1   22 1
     3    1   23 1
     4    1   24 1
     5    2    3 1
     6    2    4 1
     7    2   25 1
     8    3   26 1
     9    3   27 1
    10    3   28 1
    11    4    8 1
    12    4    5 2
    13    5    6 1
    14    5   16 1
    15    6    7 2
    16    6    9 1
    17    7    8 1
    18    9   14 ar
    19    9   10 ar
    20   10   11 ar
    21   10   29 1
    22   11   12 ar
    23   11   30 1
    24   12   13 ar
    25   12   15 1
    26   13   14 ar
    27   13   31 1
    28   14   32 1
    29   16   21 ar
    30   16   17 ar
    31   17   18 ar
    32   17   33 1
    33   18   19 ar
    34   18   34 1
    35   19   20 ar
    36   20   21 ar
    37   20   35 1
    38   21   36 1
@<TRIPOS>MOLECULE
CHEMBL197041
   71    75     0     0     0
SMALL
USER_CHARGES

@<TRIPOS>ATOM
      1 C1          1.6757    0.5472  -15.1539 C.3       1 <0>        -0.1567
      2 C2          0.9768   -0.7620  -14.7819 C.3       1 <0>         0.2013
      3 H1          0.0720   -0.8734  -15.3795 H         1 <0>         0.1010
      4 C3          1.9027   -1.9201  -15.0518 C.ar      1 <0>        -0.0967
      5 C4          2.8949   -2.2379  -14.1432 C.ar      1 <0>        -0.1132
      6 C5          3.7442   -3.3002  -14.3907 C.ar      1 <0>        -0.1144
      7 C6          3.6010   -4.0448  -15.5465 C.ar      1 <0>        -0.1165
      8 C7          2.6083   -3.7275  -16.4547 C.ar      1 <0>        -0.1153
      9 C8          1.7563   -2.6679  -16.2051 C.ar      1 <0>        -0.1061
     10 N1          0.6236   -0.7402  -13.3603 N.pl3     1 <0>        -0.6880
     11 C9         -0.5579   -0.1473  -12.9498 C.ar      1 <0>         0.5771
     12 N2         -1.3597    0.3908  -13.8577 N.ar      1 <0>        -0.5592
     13 C10        -2.4977    0.9669  -13.5057 C.ar      1 <0>         0.2028
     14 C11        -2.8516    1.0055  -12.1680 C.ar      1 <0>        -0.2766
     15 C12        -1.9865    0.4300  -11.2339 C.ar      1 <0>         0.2523
     16 N3         -0.8603   -0.1372  -11.6615 N.ar      1 <0>        -0.5475
     17 C13        -2.3201    0.4455   -9.7897 C.ar      1 <0>        -0.0285
     18 C14        -3.5744    0.0286   -9.3318 C.ar      1 <0>        -0.0854
     19 C15        -3.8143    0.0707   -7.9689 C.ar      1 <0>         0.0805
     20 N4         -2.8759    0.4943   -7.1424 N.ar      1 <0>        -0.2219
     21 N5         -1.7210    0.8798   -7.5466 N.ar      1 <0>        -0.2193
     22 C16        -1.3841    0.8745   -8.8304 C.ar      1 <0>         0.1362
     23 C17        -0.0354    1.3223   -9.2506 C.ar      1 <0>        -0.0304
     24 C18         0.1123    2.1495  -10.3636 C.ar      1 <0>        -0.0530
     25 C19         1.3704    2.5636  -10.7498 C.ar      1 <0>        -0.1174
     26 C20         2.4843    2.1593  -10.0355 C.ar      1 <0>        -0.0567
     27 C21         2.3441    1.3389   -8.9308 C.ar      1 <0>        -0.1820
     28 C22         1.0902    0.9229   -8.5315 C.ar      1 <0>        -0.0263
     29 C23         3.5625    0.9027   -8.1586 C.3       1 <0>         0.5095
     30 F1          4.7078    1.4506   -8.7460 F         1 <0>        -0.1760
     31 F2          3.4594    1.3458   -6.8356 F         1 <0>        -0.1732
     32 F3          3.6512   -0.4934   -8.1772 F         1 <0>        -0.1749
     33 C24        -5.1505   -0.3677   -7.4273 C.3       1 <0>        -0.0349
     34 C25        -5.6844   -1.5304   -8.2671 C.3       1 <0>        -0.1318
     35 C26        -7.0261   -1.9960   -7.6928 C.3       1 <0>         0.1109
     36 N6         -7.9326   -0.8424   -7.6139 N.am      1 <0>        -0.6006
     37 C27        -7.4814    0.3635   -6.9061 C.3       1 <0>         0.1069
     38 C28        -6.1346    0.8026   -7.4892 C.3       1 <0>        -0.1257
     39 C29        -9.1546   -0.8893   -8.1804 C.2       1 <0>         0.4870
     40 O1         -9.5540   -1.9222   -8.6771 O.2       1 <0>        -0.5101
     41 C30       -10.0158    0.3276   -8.1970 C.2       1 <0>         0.3568
     42 O2        -10.7448    0.5643   -7.2635 O.2       1 <0>        -0.4173
     43 C31        -9.9768    1.2623   -9.3784 C.3       1 <0>        -0.1951
     44 H2          1.9386    0.5309  -16.2117 H         1 <0>         0.0695
     45 H3          1.0061    1.3847  -14.9588 H         1 <0>         0.0648
     46 H4          2.5805    0.6585  -14.5564 H         1 <0>         0.0579
     47 H5          3.0067   -1.6562  -13.2402 H         1 <0>         0.1190
     48 H6          4.5198   -3.5481  -13.6812 H         1 <0>         0.1245
     49 H7          4.2650   -4.8742  -15.7403 H         1 <0>         0.1239
     50 H8          2.4967   -4.3090  -17.3579 H         1 <0>         0.1253
     51 H9          0.9783   -2.4223  -16.9128 H         1 <0>         0.1250
     52 H10         1.2177   -1.1413  -12.7068 H         1 <0>         0.4134
     53 H11        -3.1433    1.4026  -14.2539 H         1 <0>         0.1740
     54 H12        -3.7747    1.4698  -11.8537 H         1 <0>         0.1465
     55 H13        -4.3323   -0.3152  -10.0202 H         1 <0>         0.1587
     56 H14        -0.7564    2.4651  -10.9223 H         1 <0>         0.1227
     57 H15         1.4861    3.2042  -11.6115 H         1 <0>         0.1367
     58 H16         3.4673    2.4854  -10.3420 H         1 <0>         0.1419
     59 H17         0.9815    0.2860   -7.6661 H         1 <0>         0.1396
     60 H18        -5.0347   -0.6905   -6.3926 H         1 <0>         0.1060
     61 H19        -5.8240   -1.2014   -9.2968 H         1 <0>         0.0756
     62 H20        -4.9720   -2.3549   -8.2415 H         1 <0>         0.0867
     63 H21        -7.4580   -2.7563   -8.3435 H         1 <0>         0.1016
     64 H22        -6.8731   -2.4093   -6.6958 H         1 <0>         0.0792
     65 H23        -8.2138    1.1600   -7.0377 H         1 <0>         0.0849
     66 H24        -7.3656    0.1426   -5.8450 H         1 <0>         0.0862
     67 H25        -5.7426    1.6386   -6.9100 H         1 <0>         0.0896
     68 H26        -6.2700    1.1097   -8.5263 H         1 <0>         0.0752
     69 H27        -9.2665    0.8871  -10.1152 H         1 <0>         0.0868
     70 H28       -10.9683    1.3222   -9.8272 H         1 <0>         0.1067
     71 H29        -9.6672    2.2536   -9.0473 H         1 <0>         0.1066
@<TRIPOS>BOND
     1    1    2 1
     2    1   44 1
     3    1   45 1
     4    1   46 1
     5    2    3 1
     6    2    4 1
     7    2   10 1
     8    4    9 ar
     9    4    5 ar
    10    5    6 ar
    11    5   47 1
    12    6    7 ar
    13    6   48 1
    14    7    8 ar
    15    7   49 1
    16    8    9 ar
    17    8   50 1
    18    9   51 1
    19   10   11 1
    20   10   52 1
    21   11   16 ar
    22   11   12 ar
    23   12   13 ar
    24   13   14 ar
    25   13   53 1
    26   14   15 ar
    27   14   54 1
    28   15   16 ar
    29   15   17 1
    30   17   22 ar
    31   17   18 ar
    32   18   19 ar
    33   18   55 1
    34   19   20 ar
    35   19   33 1
    36   20   21 ar
    37   21   22 ar
    38   22   23 1
    39   23   28 ar
    40   23   24 ar
    41   24   25 ar
    42   24   56 1
    43   25   26 ar
    44   25   57 1
    45   26   27 ar
    46   26   58 1
    47   27   28 ar
    48   27   29 1
    49   28   59 1
    50   29   30 1
    51   29   31 1
    52   29   32 1
    53   33   38 1
    54   33   34 1
    55   33   60 1
    56   34   35 1
    57   34   61 1
    58   34   62 1
    59   35   36 1
    60   35   63 1
    61   35   64 1
    62   36   37 1
    63   36   39 am
    64   37   38 1
    65   37   65 1
    66   37   66 1
    67   38   67 1
    68   38   68 1
    69   39   40 2
    70   39   41 1
    71   41   42 2
    72   41   43 1
    73   43   69 1
    74   43   70 1
    75   43   71 1
@<TRIPOS>MOLECULE
CHEMBL375795
   52    54     0     0     0
SMALL
USER_CHARGES

@<TRIPOS>ATOM
      1 C1         -0.0225    1.8097    0.0120 C.3       1 <0>        -0.6500
      2 S1          0.0021   -0.0041    0.0020 S.o2      1 <0>         2.4978
      3 O1          0.8352   -0.4880    1.0465 O.2       1 <0>        -0.9357
      4 O2         -1.3147   -0.5105   -0.1678 O.2       1 <0>        -0.9356
      5 C2          0.8454   -0.4373   -1.4831 C.ar      1 <0>        -0.6520
      6 C3          0.1346   -0.6126   -2.6557 C.ar      1 <0>        -0.0244
      7 C4          0.7962   -0.9525   -3.8208 C.ar      1 <0>        -0.1184
      8 C5          2.1688   -1.1167   -3.8136 C.ar      1 <0>        -0.0549
      9 C6          2.8797   -0.9405   -2.6412 C.ar      1 <0>        -0.1185
     10 C7          2.2186   -0.5964   -1.4770 C.ar      1 <0>        -0.0245
     11 C8          2.8899   -1.4882   -5.0836 C.3       1 <0>         0.1513
     12 N1          3.2853   -0.2700   -5.7949 N.am      1 <0>        -0.7057
     13 C9          3.9482   -0.3580   -6.9650 C.2       1 <0>         0.5733
     14 O3          4.2180   -1.4477   -7.4300 O.2       1 <0>        -0.5205
     15 C10         4.3483    0.8747   -7.6848 C.ar      1 <0>         0.1949
     16 C11         5.0260    0.7707   -8.8925 C.ar      1 <0>        -0.2424
     17 C12         5.4005    1.9327   -9.5673 C.ar      1 <0>         0.3372
     18 C13         5.0725    3.1730   -8.9900 C.ar      1 <0>        -0.2189
     19 C14         4.3845    3.1901   -7.7633 C.ar      1 <0>         0.4902
     20 N2          4.0476    2.0611   -7.1662 N.ar      1 <0>        -0.5563
     21 N3          4.0533    4.4008   -7.1791 N.pl3     1 <0>        -0.7039
     22 C15         3.3367    4.4260   -5.9016 C.3       1 <0>         0.1495
     23 C16         1.8147    4.3765   -6.1483 C.3       1 <0>        -0.1342
     24 C17         1.2230    5.3053   -5.0591 C.3       1 <0>        -0.1249
     25 C18         2.2600    6.4536   -4.9888 C.3       1 <0>        -0.1256
     26 C19         3.6198    5.7466   -5.1644 C.3       1 <0>        -0.1351
     27 C20         5.4334    4.3969   -9.6399 C.1       1 <0>         0.2586
     28 N4          5.7196    5.3679  -10.1554 N.1       1 <0>        -0.4219
     29 N5          6.0784    1.8670  -10.7747 N.pl3     1 <0>        -0.8418
     30 H1          1.0001    2.1870    0.0043 H         1 <0>         0.1320
     31 H2         -0.5497    2.1708   -0.8711 H         1 <0>         0.1320
     32 H3         -0.5327    2.1613    0.9088 H         1 <0>         0.1341
     33 H4         -0.9378   -0.4844   -2.6614 H         1 <0>         0.1450
     34 H5          0.2407   -1.0902   -4.7367 H         1 <0>         0.1366
     35 H6          3.9520   -1.0690   -2.6355 H         1 <0>         0.1366
     36 H7          2.7745   -0.4551   -0.5619 H         1 <0>         0.1450
     37 H8          3.7781   -2.0711   -4.8398 H         1 <0>         0.0867
     38 H9          2.2292   -2.0804   -5.7167 H         1 <0>         0.0867
     39 H10         3.0699    0.5999   -5.4237 H         1 <0>         0.4142
     40 H11         5.2609   -0.1995   -9.3047 H         1 <0>         0.1542
     41 H12         4.2957    5.2324   -7.6157 H         1 <0>         0.4083
     42 H13         3.6434    3.5810   -5.2851 H         1 <0>         0.0985
     43 H14         1.5769    4.7548   -7.1425 H         1 <0>         0.0689
     44 H15         1.4413    3.3597   -6.0266 H         1 <0>         0.0733
     45 H16         0.2471    5.6841   -5.3630 H         1 <0>         0.0688
     46 H17         1.1563    4.7859   -4.1031 H         1 <0>         0.0696
     47 H18         2.0941    7.1673   -5.7958 H         1 <0>         0.0664
     48 H19         2.2116    6.9526   -4.0210 H         1 <0>         0.0692
     49 H20         4.0631    5.5425   -4.1897 H         1 <0>         0.0774
     50 H21         4.2904    6.3688   -5.7571 H         1 <0>         0.0693
     51 H22         6.2984    1.0049  -11.1611 H         1 <0>         0.4136
     52 H23         6.3327    2.6831  -11.2332 H         1 <0>         0.4060
@<TRIPOS>BOND
     1    1    2 1
     2    1   30 1
     3    1   31 1
     4    1   32 1
     5    2    3 2
     6    2    4 2
     7    2    5 1
     8    5   10 ar
     9    5    6 ar
    10    6    7 ar
    11    6   33 1
    12    7    8 ar
    13    7   34 1
    14    8    9 ar
    15    8   11 1
    16    9   10 ar
    17    9   35 1
    18   10   36 1
    19   11   12 1
    20   11   37 1
    21   11   38 1
    22   12   13 am
    23   12   39 1
    24   13   14 2
    25   13   15 1
    26   15   20 ar
    27   15   16 ar
    28   16   17 ar
    29   16   40 1
    30   17   18 ar
    31   17   29 1
    32   18   19 ar
    33   18   27 1
    34   19   20 ar
    35   19   21 1
    36   21   22 1
    37   21   41 1
    38   22   26 1
    39   22   23 1
    40   22   42 1
    41   23   24 1
    42   23   43 1
    43   23   44 1
    44   24   25 1
    45   24   45 1
    46   24   46 1
    47   25   26 1
    48   25   47 1
    49   25   48 1
    50   26   49 1
    51   26   50 1
    52   27   28 3
    53   29   51 1
    54   29   52 1
@<TRIPOS>MOLECULE
CHEMBL1094014
   57    60     0     0     0
SMALL
USER_CHARGES

@<TRIPOS>ATOM
      1 C1         -0.6600    0.0055    0.8437 C.3       1 <0>         0.1214
      2 N1          0.0171   -0.4221   -0.3830 N.pl3     1 <0>        -0.6383
      3 C2          1.4674   -0.2613   -0.5133 C.3       1 <0>         0.1200
      4 C3         -0.7140   -0.9783   -1.4198 C.2       1 <0>         0.3943
      5 C4         -0.9179   -2.3309   -1.6502 C.2       1 <0>        -0.2280
      6 C5         -1.7168   -2.4399   -2.8076 C.2       1 <0>         0.0873
      7 N2         -1.9742   -1.2364   -3.2412 N.2       1 <0>        -0.2867
      8 N3         -1.3664   -0.3051   -2.3918 N.pl3     1 <0>        -0.3656
      9 C6         -1.4252    1.1517   -2.5346 C.3       1 <0>         0.1731
     10 C7         -0.3295    1.6102   -3.4621 C.ar      1 <0>        -0.1170
     11 C8          0.8771    2.0439   -2.9454 C.ar      1 <0>        -0.0998
     12 C9          1.8821    2.4644   -3.7962 C.ar      1 <0>        -0.1236
     13 C10         1.6808    2.4508   -5.1637 C.ar      1 <0>        -0.1081
     14 C11         0.4746    2.0162   -5.6805 C.ar      1 <0>        -0.1223
     15 C12        -0.5289    1.5916   -4.8299 C.ar      1 <0>        -0.0888
     16 C13        -0.3954   -3.4487   -0.8357 C.ar      1 <0>         0.3163
     17 C14        -0.7599   -4.7698   -1.1238 C.ar      1 <0>        -0.2905
     18 C15        -0.2462   -5.7806   -0.3356 C.ar      1 <0>         0.1914
     19 N4          0.5701   -5.4742    0.6623 N.ar      1 <0>        -0.5812
     20 C16         0.8991   -4.2154    0.9134 C.ar      1 <0>         0.5692
     21 N5          0.4344   -3.2155    0.1807 N.ar      1 <0>        -0.5603
     22 N6          1.7549   -3.9393    1.9656 N.pl3     1 <0>        -0.6983
     23 C17         2.2846   -5.0321    2.7851 C.3       1 <0>         0.1636
     24 C18         1.2795   -5.3779    3.8856 C.3       1 <0>        -0.1241
     25 C19         1.8327   -6.5191    4.7414 C.3       1 <0>        -0.1093
     26 C20         3.1553   -6.0853    5.3766 C.3       1 <0>         0.1029
     27 C21         4.1604   -5.7395    4.2762 C.3       1 <0>        -0.1470
     28 C22         3.6072   -4.5983    3.4204 C.3       1 <0>        -0.1247
     29 O1          3.6720   -7.1512    6.1759 O.3       1 <0>        -0.5676
     30 H1         -0.4261    1.0515    1.0422 H         1 <0>         0.0475
     31 H2         -1.7372   -0.1094    0.7231 H         1 <0>         0.0577
     32 H3         -0.3204   -0.6075    1.6787 H         1 <0>         0.0526
     33 H4          1.8750    0.1287    0.4193 H         1 <0>         0.0695
     34 H5          1.9218   -1.2275   -0.7325 H         1 <0>         0.0529
     35 H6          1.6845    0.4345   -1.3238 H         1 <0>         0.0406
     36 H7         -2.0567   -3.3610   -3.2576 H         1 <0>         0.1884
     37 H8         -2.3931    1.4377   -2.9463 H         1 <0>         0.1030
     38 H9         -1.2935    1.6181   -1.5582 H         1 <0>         0.1007
     39 H10         1.0343    2.0545   -1.8770 H         1 <0>         0.1243
     40 H11         2.8245    2.8039   -3.3925 H         1 <0>         0.1243
     41 H12         2.4658    2.7800   -5.8284 H         1 <0>         0.1240
     42 H13         0.3172    2.0059   -6.7489 H         1 <0>         0.1250
     43 H14        -1.4700    1.2486   -5.2338 H         1 <0>         0.1258
     44 H15        -1.4274   -4.9928   -1.9429 H         1 <0>         0.1394
     45 H16        -0.5073   -6.8103   -0.5303 H         1 <0>         0.1635
     46 H17         2.0039   -3.0223    2.1605 H         1 <0>         0.4088
     47 H18         2.4526   -5.9078    2.1582 H         1 <0>         0.0929
     48 H19         1.1115   -4.5021    4.5124 H         1 <0>         0.0621
     49 H20         0.3372   -5.6869    3.4330 H         1 <0>         0.0747
     50 H21         1.1166   -6.7654    5.5254 H         1 <0>         0.0716
     51 H22         2.0007   -7.3948    4.1145 H         1 <0>         0.0735
     52 H23         2.9873   -5.2096    6.0035 H         1 <0>         0.0547
     53 H24         5.1026   -5.4305    4.7287 H         1 <0>         0.0699
     54 H25         4.3284   -6.6153    3.6493 H         1 <0>         0.0752
     55 H26         4.3233   -4.3520    2.6364 H         1 <0>         0.0724
     56 H27         3.4392   -3.7226    4.0472 H         1 <0>         0.0685
     57 H28         4.5112   -6.9460    6.6103 H         1 <0>         0.3782
@<TRIPOS>BOND
     1    1    2 1
     2    1   30 1
     3    1   31 1
     4    1   32 1
     5    2    3 1
     6    2    4 1
     7    3   33 1
     8    3   34 1
     9    3   35 1
    10    4    8 1
    11    4    5 2
    12    5    6 1
    13    5   16 1
    14    6    7 2
    15    6   36 1
    16    7    8 1
    17    8    9 1
    18    9   10 1
    19    9   37 1
    20    9   38 1
    21   10   15 ar
    22   10   11 ar
    23   11   12 ar
    24   11   39 1
    25   12   13 ar
    26   12   40 1
    27   13   14 ar
    28   13   41 1
    29   14   15 ar
    30   14   42 1
    31   15   43 1
    32   16   21 ar
    33   16   17 ar
    34   17   18 ar
    35   17   44 1
    36   18   19 ar
    37   18   45 1
    38   19   20 ar
    39   20   21 ar
    40   20   22 1
    41   22   23 1
    42   22   46 1
    43   23   28 1
    44   23   24 1
    45   23   47 1
    46   24   25 1
    47   24   48 1
    48   24   49 1
    49   25   26 1
    50   25   50 1
    51   25   51 1
    52   26   27 1
    53   26   29 1
    54   26   52 1
    55   27   28 1
    56   27   53 1
    57   27   54 1
    58   28   55 1
    59   28   56 1
    60   29   57 1
@<TRIPOS>MOLECULE
CHEMBL1094014__1
   58    61     0     0     0
SMALL
USER_CHARGES

@<TRIPOS>ATOM
      1 C1         -0.7841   -0.0119    0.4092 C.3       1 <0>         0.1082
      2 N1          0.3590   -0.3574   -0.4393 N.pl3     1 <0>        -0.6268
      3 C2          1.7236   -0.1946    0.0681 C.3       1 <0>         0.1072
      4 C3          0.1496   -0.8381   -1.7215 C.2       1 <0>         0.4985
      5 C4          0.1048   -2.1707   -2.1040 C.2       1 <0>        -0.1725
      6 C5         -0.1297   -2.1966   -3.4947 C.2       1 <0>         0.2211
      7 N2         -0.2193   -0.9652   -3.9169 N.pl3     1 <0>        -0.3717
      8 N3         -0.0549   -0.0971   -2.8318 N.pl3     1 <0>        -0.3283
      9 C6         -0.0948    1.3662   -2.8907 C.3       1 <0>         0.1460
     10 C7          1.3043    1.9005   -3.0587 C.ar      1 <0>        -0.1493
     11 C8          2.0261    2.3077   -1.9524 C.ar      1 <0>        -0.0879
     12 C9          3.3095    2.7978   -2.1065 C.ar      1 <0>        -0.1151
     13 C10         3.8712    2.8802   -3.3669 C.ar      1 <0>        -0.0874
     14 C11         3.1497    2.4721   -4.4731 C.ar      1 <0>        -0.1150
     15 C12         1.8679    1.9780   -4.3186 C.ar      1 <0>        -0.0972
     16 C13         0.2720   -3.3439   -1.2200 C.ar      1 <0>         0.2824
     17 C14         0.1056   -4.6411   -1.7205 C.ar      1 <0>        -0.2823
     18 C15         0.2724   -5.7057   -0.8569 C.ar      1 <0>         0.2088
     19 N4          0.5826   -5.4712    0.4099 N.ar      1 <0>        -0.5591
     20 C16         0.7344   -4.2336    0.8580 C.ar      1 <0>         0.5798
     21 N5          0.5890   -3.1838    0.0646 N.ar      1 <0>        -0.5552
     22 N6          1.0584   -4.0332    2.1886 N.pl3     1 <0>        -0.6885
     23 C17         1.2293   -5.1818    3.0818 C.3       1 <0>         0.1586
     24 C18        -0.1338   -5.6086    3.6301 C.3       1 <0>        -0.1231
     25 C19         0.0446   -6.8081    4.5630 C.3       1 <0>        -0.1111
     26 C20         0.9622   -6.4193    5.7239 C.3       1 <0>         0.1026
     27 C21         2.3253   -5.9925    5.1756 C.3       1 <0>        -0.1489
     28 C22         2.1469   -4.7930    4.2428 C.3       1 <0>        -0.1244
     29 O1          1.1288   -7.5397    6.5952 O.3       1 <0>        -0.5660
     30 H1         -0.9909    1.0549    0.3235 H         1 <0>         0.0528
     31 H2         -1.6586   -0.5784    0.0891 H         1 <0>         0.0667
     32 H3         -0.5534   -0.2551    1.4464 H         1 <0>         0.0884
     33 H4          2.0454   -1.1187    0.5483 H         1 <0>         0.0712
     34 H5          2.3939    0.0372   -0.7596 H         1 <0>         0.0618
     35 H6          1.7470    0.6188    0.7933 H         1 <0>         0.0808
     36 H7         -0.2192   -3.0831   -4.1051 H         1 <0>         0.2408
     37 H8         -0.7072    1.6793   -3.7363 H         1 <0>         0.1244
     38 H9         -0.5239    1.7555   -1.9675 H         1 <0>         0.1366
     39 H10         1.5873    2.2433   -0.9677 H         1 <0>         0.1291
     40 H11         3.8732    3.1166   -1.2422 H         1 <0>         0.1350
     41 H12         4.8736    3.2637   -3.4873 H         1 <0>         0.1347
     42 H13         3.5884    2.5368   -5.4579 H         1 <0>         0.1336
     43 H14         1.3056    1.6557   -5.1825 H         1 <0>         0.1212
     44 H15        -0.1476   -4.8052   -2.7575 H         1 <0>         0.1450
     45 H16         0.1510   -6.7190   -1.2103 H         1 <0>         0.1750
     46 H17         1.1725   -3.1324    2.5297 H         1 <0>         0.4121
     47 H18         1.6738   -6.0092    2.5288 H         1 <0>         0.0969
     48 H19        -0.5783   -4.7812    4.1832 H         1 <0>         0.0643
     49 H20        -0.7876   -5.8856    2.8031 H         1 <0>         0.0737
     50 H21        -0.9266   -7.1122    4.9536 H         1 <0>         0.0747
     51 H22         0.4890   -7.6356    4.0099 H         1 <0>         0.0748
     52 H23         0.5177   -5.5919    6.2769 H         1 <0>         0.0554
     53 H24         2.9790   -5.7155    6.0027 H         1 <0>         0.0733
     54 H25         2.7698   -6.8199    4.6226 H         1 <0>         0.0765
     55 H26         3.1180   -4.4889    3.8522 H         1 <0>         0.0734
     56 H27         1.7024   -3.9655    4.7958 H         1 <0>         0.0704
     57 H28         1.7002   -7.3650    7.3555 H         1 <0>         0.3810
     58 H29        -0.3779   -0.6950   -4.8350 H         1 <0>         0.4735
@<TRIPOS>BOND
     1    1    2 1
     2    1   30 1
     3    1   31 1
     4    1   32 1
     5    2    3 1
     6    2    4 1
     7    3   33 1
     8    3   34 1
     9    3   35 1
    10    4    8 1
    11    4    5 2
    12    5    6 1
    13    5   16 1
    14    6    7 2
    15    6   36 1
    16    7    8 1
    17    7   58 1
    18    8    9 1
    19    9   10 1
    20    9   37 1
    21    9   38 1
    22   10   15 ar
    23   10   11 ar
    24   11   12 ar
    25   11   39 1
    26   12   13 ar
    27   12   40 1
    28   13   14 ar
    29   13   41 1
    30   14   15 ar
    31   14   42 1
    32   15   43 1
    33   16   21 ar
    34   16   17 ar
    35   17   18 ar
    36   17   44 1
    37   18   19 ar
    38   18   45 1
    39   19   20 ar
    40   20   21 ar
    41   20   22 1
    42   22   23 1
    43   22   46 1
    44   23   28 1
    45   23   24 1
    46   23   47 1
    47   24   25 1
    48   24   48 1
    49   24   49 1
    50   25   26 1
    51   25   50 1
    52   25   51 1
    53   26   27 1
    54   26   29 1
    55   26   52 1
    56   27   28 1
    57   27   53 1
    58   27   54 1
    59   28   55 1
    60   28   56 1
    61   29   57 1
@<TRIPOS>MOLECULE
CHEMBL1094013
   63    67     0     0     0
SMALL
USER_CHARGES

@<TRIPOS>ATOM
      1 C1         -0.0187    1.5258    0.0104 C.3       1 <0>        -0.1507
      2 C2          0.0021   -0.0041    0.0020 C.3       1 <0>        -0.1380
      3 C3          0.7182   -0.4975   -1.2568 C.3       1 <0>         0.1311
      4 N1          0.7381   -1.9623   -1.2648 N.pl3     1 <0>        -0.6865
      5 C4          1.3368   -2.6406   -2.3124 C.ar      1 <0>         0.5820
      6 N2          1.8918   -1.9476   -3.2967 N.ar      1 <0>        -0.5468
      7 C5          2.4750   -2.5577   -4.3177 C.ar      1 <0>         0.2164
      8 C6          2.5037   -3.9386   -4.3542 C.ar      1 <0>        -0.2794
      9 C7          1.9095   -4.6462   -3.3005 C.ar      1 <0>         0.2619
     10 N3          1.3450   -3.9636   -2.3023 N.ar      1 <0>        -0.5450
     11 C8          1.9128   -6.1201   -3.2923 C.2       1 <0>         0.1177
     12 C9          1.8203   -6.9450   -2.1860 C.2       1 <0>         0.1444
     13 N4          1.8599   -8.2129   -2.6272 N.pl3     1 <0>        -0.4621
     14 C10         1.9691   -8.2231   -3.9328 C.cat     1 <0>         0.2952
     15 N5          2.0028   -6.9558   -4.3880 N.pl3     1 <0>        -0.4038
     16 C11         2.1245   -6.9186   -5.8529 C.3       1 <0>         0.1201
     17 H1          3.1525   -6.6980   -6.1404 H         1 <0>         0.1361
     18 C12         1.7258   -8.3296   -6.3361 C.3       1 <0>        -0.1237
     19 C13         2.0654   -9.1916   -5.0965 C.3       1 <0>        -0.0633
     20 C14         1.1758   -5.8696   -6.4364 C.3       1 <0>        -0.0921
     21 C15         1.4016   -5.7591   -7.9222 C.ar      1 <0>        -0.1418
     22 C16         2.3326   -4.8630   -8.4141 C.ar      1 <0>        -0.0685
     23 C17         2.5412   -4.7595   -9.7758 C.ar      1 <0>        -0.1470
     24 C18         1.8159   -5.5561  -10.6499 C.ar      1 <0>         0.1436
     25 C19         0.8826   -6.4547  -10.1539 C.ar      1 <0>        -0.2052
     26 C20         0.6815   -6.5581   -8.7911 C.ar      1 <0>        -0.0669
     27 O1          2.0189   -5.4558  -11.9899 O.3       1 <0>        -0.3129
     28 C21         1.2367   -6.3069  -12.8301 C.3       1 <0>         0.0241
     29 C22         1.6998   -6.5104   -0.7748 C.ar      1 <0>        -0.0708
     30 C23         2.5089   -5.4842   -0.2874 C.ar      1 <0>        -0.0164
     31 C24         2.3931   -5.0831    1.0273 C.ar      1 <0>        -0.1525
     32 C25         1.4750   -5.6981    1.8634 C.ar      1 <0>         0.1409
     33 C26         0.6693   -6.7184    1.3839 C.ar      1 <0>        -0.1516
     34 C27         0.7731   -7.1221    0.0689 C.ar      1 <0>        -0.0574
     35 F1          1.3655   -5.3021    3.1504 F         1 <0>        -0.1240
     36 H2          1.0039    1.9031    0.0027 H         1 <0>         0.0602
     37 H3         -0.5459    1.8868   -0.8726 H         1 <0>         0.0600
     38 H4         -0.5289    1.8773    0.9072 H         1 <0>         0.0646
     39 H5          0.5293   -0.3651    0.8851 H         1 <0>         0.0703
     40 H6         -1.0205   -0.3814    0.0098 H         1 <0>         0.0700
     41 H7          0.1910   -0.1364   -2.1398 H         1 <0>         0.0734
     42 H8          1.7408   -0.1202   -1.2645 H         1 <0>         0.0741
     43 H9          0.3316   -2.4569   -0.5361 H         1 <0>         0.4166
     44 H10         2.9233   -1.9815   -5.1136 H         1 <0>         0.1809
     45 H11         2.9727   -4.4603   -5.1754 H         1 <0>         0.1458
     46 H12         0.6623   -8.3755   -6.5707 H         1 <0>         0.1104
     47 H13         2.3264   -8.6324   -7.1938 H         1 <0>         0.1323
     48 H14         3.0730   -9.6007   -5.1698 H         1 <0>         0.1383
     49 H15         1.3346   -9.9929   -4.9871 H         1 <0>         0.1327
     50 H16         0.1444   -6.1669   -6.2467 H         1 <0>         0.0896
     51 H17         1.3679   -4.9048   -5.9670 H         1 <0>         0.0969
     52 H18         2.8970   -4.2432   -7.7332 H         1 <0>         0.1295
     53 H19         3.2680   -4.0589  -10.1595 H         1 <0>         0.1371
     54 H20         0.3167   -7.0759  -10.8324 H         1 <0>         0.1339
     55 H21        -0.0417   -7.2607   -8.4041 H         1 <0>         0.1258
     56 H22         1.4967   -6.1263  -13.8731 H         1 <0>         0.1067
     57 H23         1.4382   -7.3486  -12.5804 H         1 <0>         0.0588
     58 H24         0.1784   -6.0949  -12.6775 H         1 <0>         0.0591
     59 H25         3.2252   -5.0047   -0.9381 H         1 <0>         0.1301
     60 H26         3.0191   -4.2885    1.4057 H         1 <0>         0.1472
     61 H27        -0.0445   -7.1950    2.0395 H         1 <0>         0.1500
     62 H28         0.1413   -7.9141   -0.3052 H         1 <0>         0.1363
     63 H29         1.8147   -9.0017   -2.0644 H         1 <0>         0.4620
@<TRIPOS>BOND
     1    1    2 1
     2    1   36 1
     3    1   37 1
     4    1   38 1
     5    2    3 1
     6    2   39 1
     7    2   40 1
     8    3    4 1
     9    3   41 1
    10    3   42 1
    11    4    5 1
    12    4   43 1
    13    5   10 ar
    14    5    6 ar
    15    6    7 ar
    16    7    8 ar
    17    7   44 1
    18    8    9 ar
    19    8   45 1
    20    9   10 ar
    21    9   11 1
    22   11   15 1
    23   11   12 2
    24   12   13 1
    25   12   29 1
    26   13   14 2
    27   13   63 1
    28   14   19 1
    29   14   15 1
    30   15   16 1
    31   16   17 1
    32   16   18 1
    33   16   20 1
    34   18   19 1
    35   18   46 1
    36   18   47 1
    37   19   48 1
    38   19   49 1
    39   20   21 1
    40   20   50 1
    41   20   51 1
    42   21   26 ar
    43   21   22 ar
    44   22   23 ar
    45   22   52 1
    46   23   24 ar
    47   23   53 1
    48   24   25 ar
    49   24   27 1
    50   25   26 ar
    51   25   54 1
    52   26   55 1
    53   27   28 1
    54   28   56 1
    55   28   57 1
    56   28   58 1
    57   29   34 ar
    58   29   30 ar
    59   30   31 ar
    60   30   59 1
    61   31   32 ar
    62   31   60 1
    63   32   33 ar
    64   32   35 1
    65   33   34 ar
    66   33   61 1
    67   34   62 1
@<TRIPOS>MOLECULE
CHEMBL1094013__1
   62    66     0     0     0
SMALL
USER_CHARGES

@<TRIPOS>ATOM
      1 C1         -0.0187    1.5258    0.0104 C.3       1 <0>        -0.1485
      2 C2          0.0021   -0.0041    0.0020 C.3       1 <0>        -0.1385
      3 C3         -1.4333   -0.5336    0.0129 C.3       1 <0>         0.1370
      4 N1         -1.4134   -1.9985    0.0048 N.pl3     1 <0>        -0.6960
      5 C4         -2.6026   -2.7068    0.0124 C.ar      1 <0>         0.5743
      6 N2         -3.7496   -2.0424    0.0215 N.ar      1 <0>        -0.5687
      7 C5         -4.9097   -2.6817    0.0289 C.ar      1 <0>         0.2019
      8 C6         -4.9210   -4.0634    0.0271 C.ar      1 <0>        -0.2944
      9 C7         -3.6940   -4.7404    0.0174 C.ar      1 <0>         0.2990
     10 N3         -2.5648   -4.0293    0.0049 N.ar      1 <0>        -0.5507
     11 C8         -3.6515   -6.2137    0.0156 C.2       1 <0>         0.0243
     12 C9         -2.6267   -7.0149   -0.4545 C.2       1 <0>         0.1166
     13 N4         -2.9967   -8.2917   -0.2637 N.2       1 <0>        -0.4692
     14 C10        -4.1815   -8.3297    0.2945 C.2       1 <0>         0.2193
     15 N5         -4.6242   -7.0725    0.4884 N.pl3     1 <0>        -0.4570
     16 C11        -5.9543   -7.0665    1.1153 C.3       1 <0>         0.1357
     17 H1         -6.7225   -6.8678    0.3680 H         1 <0>         0.1041
     18 C12        -6.1380   -8.4804    1.7071 C.3       1 <0>        -0.1237
     19 C13        -5.2128   -9.3227    0.7963 C.3       1 <0>        -0.0445
     20 C14        -6.0117   -6.0147    2.2249 C.3       1 <0>        -0.0936
     21 C15        -7.4138   -5.9375    2.7718 C.ar      1 <0>        -0.1231
     22 C16        -8.3274   -5.0660    2.2083 C.ar      1 <0>        -0.0723
     23 C17        -9.6132   -4.9930    2.7081 C.ar      1 <0>        -0.1477
     24 C18        -9.9876   -5.7955    3.7761 C.ar      1 <0>         0.1306
     25 C19        -9.0692   -6.6694    4.3395 C.ar      1 <0>        -0.2049
     26 C20        -7.7862   -6.7424    3.8327 C.ar      1 <0>        -0.0698
     27 O1        -11.2518   -5.7252    4.2699 O.3       1 <0>        -0.3168
     28 C21       -11.5669   -6.5806    5.3703 C.3       1 <0>         0.0260
     29 C22        -1.3556   -6.5503   -1.0572 C.ar      1 <0>        -0.0107
     30 C23        -1.3338   -5.3977   -1.8422 C.ar      1 <0>        -0.0337
     31 C24        -0.1478   -4.9691   -2.4013 C.ar      1 <0>        -0.1606
     32 C25         1.0205   -5.6820   -2.1844 C.ar      1 <0>         0.1036
     33 C26         1.0038   -6.8279   -1.4055 C.ar      1 <0>        -0.1597
     34 C27        -0.1760   -7.2608   -0.8367 C.ar      1 <0>        -0.0579
     35 F1          2.1796   -5.2585   -2.7344 F         1 <0>        -0.1410
     36 H2          1.0039    1.9031    0.0027 H         1 <0>         0.0611
     37 H3         -0.5459    1.8868   -0.8726 H         1 <0>         0.0584
     38 H4         -0.5289    1.8773    0.9072 H         1 <0>         0.0580
     39 H5          0.5123   -0.3556   -0.8948 H         1 <0>         0.0697
     40 H6          0.5293   -0.3651    0.8851 H         1 <0>         0.0689
     41 H7         -1.9435   -0.1821    0.9097 H         1 <0>         0.0673
     42 H8         -1.9605   -0.1726   -0.8702 H         1 <0>         0.0682
     43 H9         -0.5669   -2.4720   -0.0058 H         1 <0>         0.4146
     44 H10        -5.8373   -2.1286    0.0366 H         1 <0>         0.1691
     45 H11        -5.8532   -4.6086    0.0334 H         1 <0>         0.1388
     46 H12        -5.8085   -8.5145    2.7455 H         1 <0>         0.0921
     47 H13        -7.1731   -8.8097    1.6168 H         1 <0>         0.1061
     48 H14        -5.7695   -9.7488   -0.0384 H         1 <0>         0.1037
     49 H15        -4.7327  -10.1102    1.3772 H         1 <0>         0.1036
     50 H16        -5.3247   -6.2921    3.0244 H         1 <0>         0.0816
     51 H17        -5.7255   -5.0438    1.8205 H         1 <0>         0.0910
     52 H18        -8.0355   -4.4415    1.3769 H         1 <0>         0.1286
     53 H19       -10.3263   -4.3116    2.2680 H         1 <0>         0.1330
     54 H20        -9.3583   -7.2951    5.1710 H         1 <0>         0.1301
     55 H21        -7.0721   -7.4257    4.2680 H         1 <0>         0.1255
     56 H22       -11.4254   -7.6202    5.0746 H         1 <0>         0.0569
     57 H23       -10.9114   -6.3492    6.2098 H         1 <0>         0.0566
     58 H24       -12.6045   -6.4251    5.6659 H         1 <0>         0.1022
     59 H25        -2.2440   -4.8419   -2.0124 H         1 <0>         0.1215
     60 H26        -0.1298   -4.0767   -3.0094 H         1 <0>         0.1318
     61 H27         1.9169   -7.3804   -1.2396 H         1 <0>         0.1364
     62 H28        -0.1871   -8.1514   -0.2258 H         1 <0>         0.1359
@<TRIPOS>BOND
     1    1    2 1
     2    1   36 1
     3    1   37 1
     4    1   38 1
     5    2    3 1
     6    2   39 1
     7    2   40 1
     8    3    4 1
     9    3   41 1
    10    3   42 1
    11    4    5 1
    12    4   43 1
    13    5   10 ar
    14    5    6 ar
    15    6    7 ar
    16    7    8 ar
    17    7   44 1
    18    8    9 ar
    19    8   45 1
    20    9   10 ar
    21    9   11 1
    22   11   15 1
    23   11   12 2
    24   12   13 1
    25   12   29 1
    26   13   14 2
    27   14   19 1
    28   14   15 1
    29   15   16 1
    30   16   17 1
    31   16   18 1
    32   16   20 1
    33   18   19 1
    34   18   46 1
    35   18   47 1
    36   19   48 1
    37   19   49 1
    38   20   21 1
    39   20   50 1
    40   20   51 1
    41   21   26 ar
    42   21   22 ar
    43   22   23 ar
    44   22   52 1
    45   23   24 ar
    46   23   53 1
    47   24   25 ar
    48   24   27 1
    49   25   26 ar
    50   25   54 1
    51   26   55 1
    52   27   28 1
    53   28   56 1
    54   28   57 1
    55   28   58 1
    56   29   34 ar
    57   29   30 ar
    58   30   31 ar
    59   30   59 1
    60   31   32 ar
    61   31   60 1
    62   32   33 ar
    63   32   35 1
    64   33   34 ar
    65   33   61 1
    66   34   62 1
@<TRIPOS>MOLECULE
CHEMBL189841
   45    48     0     0     0
SMALL
USER_CHARGES

@<TRIPOS>ATOM
      1 C1         -0.0166    1.3699    0.0096 C.ar      1 <0>        -0.0768
      2 C2          1.1572    2.1045    0.0023 C.ar      1 <0>        -0.1162
      3 C3          2.3694    1.4373   -0.0129 C.ar      1 <0>        -0.0363
      4 C4          2.3887    0.0627   -0.0205 C.ar      1 <0>        -0.1566
      5 C5          1.2179   -0.7095   -0.0134 C.ar      1 <0>         0.1213
      6 C6          0.0021   -0.0041    0.0020 C.ar      1 <0>        -0.1212
      7 N1          1.3955   -2.0811   -0.0225 N.pl3     1 <0>        -0.6082
      8 C7          2.6545   -2.6113   -0.0374 C.2       1 <0>         0.2612
      9 C8          3.0385   -3.9533   -0.0487 C.2       1 <0>        -0.1405
     10 C9          4.4277   -4.3004   -0.0638 C.1       1 <0>         0.2701
     11 N2          5.5298   -4.5757   -0.0757 N.1       1 <0>        -0.4064
     12 C10         2.0145   -5.0127   -0.0451 C.ar      1 <0>         0.3177
     13 C11         2.3877   -6.3651   -0.0505 C.ar      1 <0>        -0.2744
     14 C12         1.4023   -7.3159   -0.0470 C.ar      1 <0>         0.2033
     15 N3          0.1312   -6.9385   -0.0385 N.ar      1 <0>        -0.5819
     16 C13        -0.2016   -5.6556   -0.0335 C.ar      1 <0>         0.5785
     17 N4          0.7163   -4.7013   -0.0311 N.ar      1 <0>        -0.6060
     18 N5         -1.5405   -5.3051   -0.0252 N.pl3     1 <0>        -0.7081
     19 C14        -2.5705   -6.3470   -0.0221 C.3       1 <0>         0.1445
     20 C15        -3.9548   -5.6956   -0.0128 C.3       1 <0>        -0.1559
     21 C16        -5.0304   -6.7837   -0.0096 C.3       1 <0>         0.0964
     22 N6         -6.3560   -6.1599   -0.0007 N.pl3     1 <0>        -0.4083
     23 C17        -7.0823   -5.8114    1.1060 C.2       1 <0>         0.0258
     24 C18        -8.2335   -5.2716    0.6624 C.2       1 <0>         0.0042
     25 N7         -8.2108   -5.2900   -0.6785 N.pl3     1 <0>        -0.4761
     26 C19        -7.0871   -5.8161   -1.0828 C.cat     1 <0>         0.2888
     27 S1          3.6842   -1.1528   -0.0394 S.3       1 <0>         0.0880
     28 H1         -0.9648    1.8866    0.0260 H         1 <0>         0.1388
     29 H2          1.1270    3.1841    0.0081 H         1 <0>         0.1449
     30 H3          3.2952    1.9934   -0.0191 H         1 <0>         0.1434
     31 H4         -0.9301   -0.5494    0.0080 H         1 <0>         0.1295
     32 H5          0.6237   -2.6686   -0.0180 H         1 <0>         0.4303
     33 H6          3.4294   -6.6500   -0.0577 H         1 <0>         0.1454
     34 H7          1.6584   -8.3651   -0.0513 H         1 <0>         0.1719
     35 H8         -1.7970   -4.3696   -0.0215 H         1 <0>         0.4101
     36 H9         -2.4654   -6.9644   -0.9142 H         1 <0>         0.0770
     37 H10        -2.4555   -6.9688    0.8657 H         1 <0>         0.0771
     38 H11        -4.0599   -5.0781    0.8793 H         1 <0>         0.0880
     39 H12        -4.0697   -5.0737   -0.9006 H         1 <0>         0.0859
     40 H13        -4.9254   -7.4011   -0.9017 H         1 <0>         0.1275
     41 H14        -4.9155   -7.4055    0.8783 H         1 <0>         0.1301
     42 H15        -6.7886   -5.9442    2.1368 H         1 <0>         0.2233
     43 H16        -9.0346   -4.8906    1.2785 H         1 <0>         0.2241
     44 H17        -6.7918   -5.9558   -2.1122 H         1 <0>         0.2601
     45 H18        -8.9167   -4.9607   -1.2566 H         1 <0>         0.4658
@<TRIPOS>BOND
     1    1    6 ar
     2    1    2 ar
     3    1   28 1
     4    2    3 ar
     5    2   29 1
     6    3    4 ar
     7    3   30 1
     8    4   27 1
     9    4    5 ar
    10    5    6 ar
    11    5    7 1
    12    6   31 1
    13    7    8 1
    14    7   32 1
    15    8    9 2
    16    8   27 1
    17    9   10 1
    18    9   12 1
    19   10   11 3
    20   12   17 ar
    21   12   13 ar
    22   13   14 ar
    23   13   33 1
    24   14   15 ar
    25   14   34 1
    26   15   16 ar
    27   16   17 ar
    28   16   18 1
    29   18   19 1
    30   18   35 1
    31   19   20 1
    32   19   36 1
    33   19   37 1
    34   20   21 1
    35   20   38 1
    36   20   39 1
    37   21   22 1
    38   21   40 1
    39   21   41 1
    40   22   26 1
    41   22   23 1
    42   23   24 2
    43   23   42 1
    44   24   25 1
    45   24   43 1
    46   25   26 2
    47   25   45 1
    48   26   44 1
@<TRIPOS>MOLECULE
CHEMBL189841__1
   44    47     0     0     0
SMALL
USER_CHARGES

@<TRIPOS>ATOM
      1 C1         -0.0166    1.3699    0.0096 C.ar      1 <0>        -0.0797
      2 C2          1.1572    2.1045    0.0023 C.ar      1 <0>        -0.1183
      3 C3          2.3694    1.4373   -0.0129 C.ar      1 <0>        -0.0395
      4 C4          2.3887    0.0627   -0.0205 C.ar      1 <0>        -0.1879
      5 C5          1.2179   -0.7095   -0.0134 C.ar      1 <0>         0.1187
      6 C6          0.0021   -0.0041    0.0020 C.ar      1 <0>        -0.1203
      7 N1          1.3955   -2.0811   -0.0225 N.pl3     1 <0>        -0.6285
      8 C7          2.6545   -2.6113   -0.0374 C.2       1 <0>         0.2423
      9 C8          3.0385   -3.9533   -0.0487 C.2       1 <0>        -0.1385
     10 C9          2.0433   -4.9829   -0.0452 C.1       1 <0>         0.2718
     11 N2          1.2537   -5.7996   -0.0424 N.1       1 <0>        -0.4245
     12 C10         4.4680   -4.3104   -0.0642 C.ar      1 <0>         0.3099
     13 C11         4.8666   -5.6555   -0.0815 C.ar      1 <0>        -0.2836
     14 C12         6.2058   -5.9409   -0.0954 C.ar      1 <0>         0.2006
     15 N3          7.0848   -4.9482   -0.0923 N.ar      1 <0>        -0.5804
     16 C13         6.6886   -3.6836   -0.0759 C.ar      1 <0>         0.5824
     17 N4          5.4049   -3.3593   -0.0676 N.ar      1 <0>        -0.5825
     18 N5          7.6395   -2.6778   -0.0728 N.pl3     1 <0>        -0.7006
     19 C14         9.0646   -3.0170   -0.0875 C.3       1 <0>         0.1436
     20 C15         9.8948   -1.7318   -0.0805 C.3       1 <0>        -0.1502
     21 C16        11.3831   -2.0861   -0.0959 C.3       1 <0>         0.1098
     22 N6         12.1781   -0.8556   -0.0892 N.pl3     1 <0>        -0.4604
     23 C17        12.6056   -0.1587   -1.1871 C.2       1 <0>        -0.0567
     24 C18        13.2988    0.9015   -0.7301 C.2       1 <0>        -0.0292
     25 N7         13.2948    0.8534    0.6103 N.2       1 <0>        -0.4954
     26 C19        12.6211   -0.1937    1.0014 C.2       1 <0>         0.1817
     27 S1          3.6842   -1.1528   -0.0394 S.3       1 <0>         0.1830
     28 H1         -0.9648    1.8866    0.0260 H         1 <0>         0.1377
     29 H2          1.1270    3.1841    0.0081 H         1 <0>         0.1416
     30 H3          3.2952    1.9934   -0.0191 H         1 <0>         0.1400
     31 H4         -0.9301   -0.5494    0.0080 H         1 <0>         0.1311
     32 H5          0.6237   -2.6686   -0.0180 H         1 <0>         0.4166
     33 H6          4.1333   -6.4484   -0.0833 H         1 <0>         0.1386
     34 H7          6.5434   -6.9667   -0.1085 H         1 <0>         0.1675
     35 H8          7.3622   -1.7483   -0.0608 H         1 <0>         0.4134
     36 H9          9.3060   -3.6103    0.7944 H         1 <0>         0.0723
     37 H10         9.2920   -3.5916   -0.9854 H         1 <0>         0.0717
     38 H11         9.6534   -1.1385   -0.9624 H         1 <0>         0.0789
     39 H12         9.6674   -1.1572    0.8174 H         1 <0>         0.0796
     40 H13        11.6246   -2.6794    0.7860 H         1 <0>         0.0996
     41 H14        11.6106   -2.6607   -0.9938 H         1 <0>         0.0971
     42 H15        12.4224   -0.4109   -2.2212 H         1 <0>         0.1736
     43 H16        13.7746    1.6579   -1.3365 H         1 <0>         0.1692
     44 H17        12.4486   -0.4842    2.0272 H         1 <0>         0.2038
@<TRIPOS>BOND
     1    1    6 ar
     2    1    2 ar
     3    1   28 1
     4    2    3 ar
     5    2   29 1
     6    3    4 ar
     7    3   30 1
     8    4   27 1
     9    4    5 ar
    10    5    6 ar
    11    5    7 1
    12    6   31 1
    13    7    8 1
    14    7   32 1
    15    8    9 2
    16    8   27 1
    17    9   10 1
    18    9   12 1
    19   10   11 3
    20   12   17 ar
    21   12   13 ar
    22   13   14 ar
    23   13   33 1
    24   14   15 ar
    25   14   34 1
    26   15   16 ar
    27   16   17 ar
    28   16   18 1
    29   18   19 1
    30   18   35 1
    31   19   20 1
    32   19   36 1
    33   19   37 1
    34   20   21 1
    35   20   38 1
    36   20   39 1
    37   21   22 1
    38   21   40 1
    39   21   41 1
    40   22   26 1
    41   22   23 1
    42   23   24 2
    43   23   42 1
    44   24   25 1
    45   24   43 1
    46   25   26 2
    47   26   44 1
@<TRIPOS>MOLECULE
CHEMBL189841__2
   44    47     0     0     0
SMALL
USER_CHARGES

@<TRIPOS>ATOM
      1 C1         -0.0166    1.3699    0.0096 C.ar      1 <0>        -0.0761
      2 C2          1.1572    2.1045    0.0023 C.ar      1 <0>        -0.1185
      3 C3          2.3694    1.4373   -0.0129 C.ar      1 <0>        -0.0387
      4 C4          2.3887    0.0627   -0.0205 C.ar      1 <0>        -0.1571
      5 C5          1.2179   -0.7095   -0.0134 C.ar      1 <0>         0.1239
      6 C6          0.0021   -0.0041    0.0020 C.ar      1 <0>        -0.1195
      7 N1          1.3955   -2.0811   -0.0225 N.pl3     1 <0>        -0.6083
      8 C7          2.6545   -2.6113   -0.0374 C.2       1 <0>         0.2617
      9 C8          3.0385   -3.9533   -0.0487 C.2       1 <0>        -0.1399
     10 C9          4.4277   -4.3004   -0.0638 C.1       1 <0>         0.2758
     11 N2          5.5298   -4.5757   -0.0757 N.1       1 <0>        -0.4142
     12 C10         2.0145   -5.0127   -0.0451 C.ar      1 <0>         0.3145
     13 C11         2.3877   -6.3651   -0.0505 C.ar      1 <0>        -0.2823
     14 C12         1.4023   -7.3159   -0.0470 C.ar      1 <0>         0.2039
     15 N3          0.1312   -6.9385   -0.0385 N.ar      1 <0>        -0.5793
     16 C13        -0.2016   -5.6556   -0.0335 C.ar      1 <0>         0.5824
     17 N4          0.7163   -4.7013   -0.0311 N.ar      1 <0>        -0.6074
     18 N5         -1.5405   -5.3051   -0.0252 N.pl3     1 <0>        -0.7023
     19 C14        -2.5705   -6.3470   -0.0221 C.3       1 <0>         0.1432
     20 C15        -3.9548   -5.6956   -0.0128 C.3       1 <0>        -0.1500
     21 C16        -5.0304   -6.7837   -0.0096 C.3       1 <0>         0.1099
     22 N6         -6.3560   -6.1599   -0.0007 N.pl3     1 <0>        -0.4608
     23 C17        -7.0825   -5.8119    1.1060 C.2       1 <0>        -0.0571
     24 C18        -8.2336   -5.2718    0.6624 C.2       1 <0>        -0.0285
     25 N7         -8.2107   -5.2897   -0.6785 N.2       1 <0>        -0.4947
     26 C19        -7.0869   -5.8157   -1.0828 C.2       1 <0>         0.1816
     27 S1          3.6842   -1.1528   -0.0394 S.3       1 <0>         0.0781
     28 H1         -0.9648    1.8866    0.0260 H         1 <0>         0.1394
     29 H2          1.1270    3.1841    0.0081 H         1 <0>         0.1434
     30 H3          3.2952    1.9934   -0.0191 H         1 <0>         0.1414
     31 H4         -0.9301   -0.5494    0.0080 H         1 <0>         0.1327
     32 H5          0.6237   -2.6686   -0.0180 H         1 <0>         0.4325
     33 H6          3.4294   -6.6500   -0.0577 H         1 <0>         0.1422
     34 H7          1.6584   -8.3651   -0.0513 H         1 <0>         0.1695
     35 H8         -1.7970   -4.3696   -0.0215 H         1 <0>         0.4105
     36 H9         -2.4654   -6.9644   -0.9142 H         1 <0>         0.0734
     37 H10        -2.4555   -6.9688    0.8657 H         1 <0>         0.0728
     38 H11        -4.0599   -5.0781    0.8793 H         1 <0>         0.0784
     39 H12        -4.0697   -5.0737   -0.9006 H         1 <0>         0.0792
     40 H13        -4.9254   -7.4011   -0.9017 H         1 <0>         0.1000
     41 H14        -4.9155   -7.4055    0.8783 H         1 <0>         0.0975
     42 H15        -6.7890   -5.9450    2.1368 H         1 <0>         0.1737
     43 H16        -9.0349   -4.8911    1.2785 H         1 <0>         0.1696
     44 H17        -6.7914   -5.9550   -2.1122 H         1 <0>         0.2038
@<TRIPOS>BOND
     1    1    6 ar
     2    1    2 ar
     3    1   28 1
     4    2    3 ar
     5    2   29 1
     6    3    4 ar
     7    3   30 1
     8    4   27 1
     9    4    5 ar
    10    5    6 ar
    11    5    7 1
    12    6   31 1
    13    7    8 1
    14    7   32 1
    15    8    9 2
    16    8   27 1
    17    9   10 1
    18    9   12 1
    19   10   11 3
    20   12   17 ar
    21   12   13 ar
    22   13   14 ar
    23   13   33 1
    24   14   15 ar
    25   14   34 1
    26   15   16 ar
    27   16   17 ar
    28   16   18 1
    29   18   19 1
    30   18   35 1
    31   19   20 1
    32   19   36 1
    33   19   37 1
    34   20   21 1
    35   20   38 1
    36   20   39 1
    37   21   22 1
    38   21   40 1
    39   21   41 1
    40   22   26 1
    41   22   23 1
    42   23   24 2
    43   23   42 1
    44   24   25 1
    45   24   43 1
    46   25   26 2
    47   26   44 1
@<TRIPOS>MOLECULE
CHEMBL189841__3
   45    48     0     0     0
SMALL
USER_CHARGES

@<TRIPOS>ATOM
      1 C1         -0.0166    1.3699    0.0096 C.ar      1 <0>        -0.0774
      2 C2          1.1572    2.1045    0.0023 C.ar      1 <0>        -0.1164
      3 C3          2.3694    1.4373   -0.0129 C.ar      1 <0>        -0.0413
      4 C4          2.3887    0.0627   -0.0205 C.ar      1 <0>        -0.1874
      5 C5          1.2179   -0.7095   -0.0134 C.ar      1 <0>         0.1182
      6 C6          0.0021   -0.0041    0.0020 C.ar      1 <0>        -0.1176
      7 N1          1.3955   -2.0811   -0.0225 N.pl3     1 <0>        -0.6270
      8 C7          2.6545   -2.6113   -0.0374 C.2       1 <0>         0.2469
      9 C8          3.0385   -3.9533   -0.0487 C.2       1 <0>        -0.1402
     10 C9          2.0433   -4.9829   -0.0452 C.1       1 <0>         0.2663
     11 N2          1.2537   -5.7996   -0.0424 N.1       1 <0>        -0.4165
     12 C10         4.4680   -4.3104   -0.0642 C.ar      1 <0>         0.3132
     13 C11         4.8666   -5.6555   -0.0815 C.ar      1 <0>        -0.2755
     14 C12         6.2058   -5.9409   -0.0954 C.ar      1 <0>         0.2000
     15 N3          7.0848   -4.9482   -0.0923 N.ar      1 <0>        -0.5829
     16 C13         6.6886   -3.6836   -0.0759 C.ar      1 <0>         0.5786
     17 N4          5.4049   -3.3593   -0.0676 N.ar      1 <0>        -0.5807
     18 N5          7.6395   -2.6778   -0.0728 N.pl3     1 <0>        -0.7064
     19 C14         9.0646   -3.0170   -0.0875 C.3       1 <0>         0.1449
     20 C15         9.8948   -1.7318   -0.0805 C.3       1 <0>        -0.1561
     21 C16        11.3831   -2.0861   -0.0959 C.3       1 <0>         0.0962
     22 N6         12.1781   -0.8556   -0.0892 N.pl3     1 <0>        -0.4079
     23 C17        12.6052   -0.1585   -1.1871 C.2       1 <0>         0.0262
     24 C18        13.2986    0.9016   -0.7301 C.2       1 <0>         0.0035
     25 N7         13.2950    0.8532    0.6103 N.pl3     1 <0>        -0.4765
     26 C19        12.6215   -0.1939    1.0014 C.cat     1 <0>         0.2888
     27 S1          3.6842   -1.1528   -0.0394 S.3       1 <0>         0.1736
     28 H1         -0.9648    1.8866    0.0260 H         1 <0>         0.1399
     29 H2          1.1270    3.1841    0.0081 H         1 <0>         0.1426
     30 H3          3.2952    1.9934   -0.0191 H         1 <0>         0.1385
     31 H4         -0.9301   -0.5494    0.0080 H         1 <0>         0.1331
     32 H5          0.6237   -2.6686   -0.0180 H         1 <0>         0.4184
     33 H6          4.1333   -6.4484   -0.0833 H         1 <0>         0.1418
     34 H7          6.5434   -6.9667   -0.1085 H         1 <0>         0.1699
     35 H8          7.3622   -1.7483   -0.0608 H         1 <0>         0.4131
     36 H9          9.3060   -3.6103    0.7944 H         1 <0>         0.0758
     37 H10         9.2920   -3.5916   -0.9854 H         1 <0>         0.0759
     38 H11         9.6534   -1.1385   -0.9624 H         1 <0>         0.0885
     39 H12         9.6674   -1.1572    0.8174 H         1 <0>         0.0864
     40 H13        11.6246   -2.6794    0.7860 H         1 <0>         0.1271
     41 H14        11.6106   -2.6607   -0.9938 H         1 <0>         0.1297
     42 H15        12.4216   -0.4104   -2.2211 H         1 <0>         0.2233
     43 H16        13.7742    1.6582   -1.3365 H         1 <0>         0.2237
     44 H17        12.4494   -0.4846    2.0272 H         1 <0>         0.2601
     45 H18        13.7225    1.4970    1.1966 H         1 <0>         0.4655
@<TRIPOS>BOND
     1    1    6 ar
     2    1    2 ar
     3    1   28 1
     4    2    3 ar
     5    2   29 1
     6    3    4 ar
     7    3   30 1
     8    4   27 1
     9    4    5 ar
    10    5    6 ar
    11    5    7 1
    12    6   31 1
    13    7    8 1
    14    7   32 1
    15    8    9 2
    16    8   27 1
    17    9   10 1
    18    9   12 1
    19   10   11 3
    20   12   17 ar
    21   12   13 ar
    22   13   14 ar
    23   13   33 1
    24   14   15 ar
    25   14   34 1
    26   15   16 ar
    27   16   17 ar
    28   16   18 1
    29   18   19 1
    30   18   35 1
    31   19   20 1
    32   19   36 1
    33   19   37 1
    34   20   21 1
    35   20   38 1
    36   20   39 1
    37   21   22 1
    38   21   40 1
    39   21   41 1
    40   22   26 1
    41   22   23 1
    42   23   24 2
    43   23   42 1
    44   24   25 1
    45   24   43 1
    46   25   26 2
    47   25   45 1
    48   26   44 1
@<TRIPOS>MOLECULE
CHEMBL1089007
   50    53     0     0     0
SMALL
USER_CHARGES

@<TRIPOS>ATOM
      1 C1         -0.0169    1.3938    0.0097 C.ar      1 <0>        -0.2943
      2 C2          1.1896    2.0690    0.0018 C.ar      1 <0>         0.1981
      3 N1          2.3189    1.3778   -0.0127 N.ar      1 <0>        -0.5760
      4 C3          2.3077    0.0526   -0.0197 C.ar      1 <0>         0.5760
      5 N2          1.1755   -0.6332   -0.0130 N.ar      1 <0>        -0.5706
      6 C4          0.0021   -0.0041    0.0020 C.ar      1 <0>         0.3099
      7 C5         -1.2644   -0.7738    0.0105 C.2       1 <0>        -0.2097
      8 C6         -2.5269   -0.2521    0.0198 C.2       1 <0>         0.1051
      9 N3         -3.3933   -1.2824    0.0247 N.pl3     1 <0>        -0.4654
     10 H1         -4.3607   -1.2113    0.0313 H         1 <0>         0.4462
     11 N4         -2.6585   -2.4740    0.0183 N.2       1 <0>        -0.2903
     12 C7         -1.3864   -2.1782    0.0041 C.2       1 <0>         0.1317
     13 C8         -0.2481   -3.1657   -0.0120 C.3       1 <0>        -0.0569
     14 C9         -0.3508   -4.0449   -1.2621 C.3       1 <0>        -0.1100
     15 C10         0.7647   -5.0941   -1.2280 C.3       1 <0>        -0.1534
     16 C11         0.6512   -5.9065    0.0646 C.3       1 <0>         0.0575
     17 O1          0.7233   -5.0253    1.1873 O.3       1 <0>        -0.3778
     18 C12        -0.3225   -4.0525    1.2337 C.3       1 <0>         0.0744
     19 N5          3.5106   -0.6319   -0.0349 N.pl3     1 <0>        -0.6952
     20 C13         4.7747    0.1086   -0.0429 C.3       1 <0>         0.1621
     21 C14         5.1375    0.4825   -1.4815 C.3       1 <0>        -0.1249
     22 C15         6.4576    1.2559   -1.4899 C.3       1 <0>        -0.1090
     23 C16         7.5642    0.3823   -0.8955 C.3       1 <0>         0.1025
     24 C17         7.2014    0.0084    0.5430 C.3       1 <0>        -0.1468
     25 C18         5.8812   -0.7650    0.5515 C.3       1 <0>        -0.1259
     26 O2          8.7972    1.1046   -0.9034 O.3       1 <0>        -0.5678
     27 H2         -0.9521    1.9336    0.0260 H         1 <0>         0.1392
     28 H3          1.2108    3.1488    0.0071 H         1 <0>         0.1663
     29 H4         -2.7834    0.7970    0.0233 H         1 <0>         0.1871
     30 H5          0.7002   -2.6283   -0.0204 H         1 <0>         0.1360
     31 H6         -1.3200   -4.5435   -1.2786 H         1 <0>         0.0662
     32 H7         -0.2424   -3.4262   -2.1529 H         1 <0>         0.0660
     33 H8          0.6657   -5.7590   -2.0860 H         1 <0>         0.0746
     34 H9          1.7339   -4.5965   -1.2616 H         1 <0>         0.0732
     35 H10        -0.3015   -6.4360    0.0787 H         1 <0>         0.0504
     36 H11         1.4681   -6.6263    0.1145 H         1 <0>         0.0942
     37 H12        -0.2070   -3.4368    2.1257 H         1 <0>         0.0910
     38 H13        -1.2879   -4.5578    1.2631 H         1 <0>         0.0530
     39 H14         3.5167   -1.6019   -0.0401 H         1 <0>         0.4123
     40 H15         4.6684    1.0154    0.5524 H         1 <0>         0.0941
     41 H16         5.2438   -0.4243   -2.0769 H         1 <0>         0.0636
     42 H17         4.3491    1.1049   -1.9050 H         1 <0>         0.0746
     43 H18         6.7161    1.5223   -2.5148 H         1 <0>         0.0718
     44 H19         6.3513    2.1627   -0.8946 H         1 <0>         0.0734
     45 H20         7.6705   -0.5245   -1.4909 H         1 <0>         0.0553
     46 H21         7.9897   -0.6140    0.9665 H         1 <0>         0.0706
     47 H22         7.0951    0.9152    1.1384 H         1 <0>         0.0751
     48 H23         5.6228   -1.0314    1.5763 H         1 <0>         0.0742
     49 H24         5.9876   -1.6718   -0.0439 H         1 <0>         0.0701
     50 H25         9.5447    0.6106   -0.5399 H         1 <0>         0.3784
@<TRIPOS>BOND
     1    1    6 ar
     2    1    2 ar
     3    1   27 1
     4    2    3 ar
     5    2   28 1
     6    3    4 ar
     7    4    5 ar
     8    4   19 1
     9    5    6 ar
    10    6    7 1
    11    7   12 1
    12    7    8 2
    13    8    9 1
    14    8   29 1
    15    9   10 1
    16    9   11 1
    17   11   12 2
    18   12   13 1
    19   13   18 1
    20   13   14 1
    21   13   30 1
    22   14   15 1
    23   14   31 1
    24   14   32 1
    25   15   16 1
    26   15   33 1
    27   15   34 1
    28   16   17 1
    29   16   35 1
    30   16   36 1
    31   17   18 1
    32   18   37 1
    33   18   38 1
    34   19   20 1
    35   19   39 1
    36   20   25 1
    37   20   21 1
    38   20   40 1
    39   21   22 1
    40   21   41 1
    41   21   42 1
    42   22   23 1
    43   22   43 1
    44   22   44 1
    45   23   24 1
    46   23   26 1
    47   23   45 1
    48   24   25 1
    49   24   46 1
    50   24   47 1
    51   25   48 1
    52   25   49 1
    53   26   50 1
@<TRIPOS>MOLECULE
CHEMBL1089007__1
   50    53     0     0     0
SMALL
USER_CHARGES

@<TRIPOS>ATOM
      1 C1         -0.0169    1.3938    0.0097 C.ar      1 <0>        -0.2881
      2 C2          1.1896    2.0690    0.0018 C.ar      1 <0>         0.1976
      3 N1          2.3189    1.3778   -0.0127 N.ar      1 <0>        -0.5761
      4 C3          2.3077    0.0526   -0.0197 C.ar      1 <0>         0.5755
      5 N2          1.1755   -0.6332   -0.0130 N.ar      1 <0>        -0.5780
      6 C4          0.0021   -0.0041    0.0020 C.ar      1 <0>         0.3100
      7 C5         -1.2644   -0.7738    0.0105 C.2       1 <0>        -0.2131
      8 C6         -2.5671   -0.2354    0.0258 C.2       1 <0>         0.0873
      9 N3         -3.4155   -1.2285    0.0291 N.2       1 <0>        -0.2863
     10 H1         -3.0785   -3.3209    0.0154 H         1 <0>         0.4409
     11 N4         -2.6961   -2.4295    0.0161 N.pl3     1 <0>        -0.4672
     12 C7         -1.3827   -2.1348   -0.0011 C.2       1 <0>         0.1584
     13 C8         -0.2483   -3.1265   -0.0256 C.3       1 <0>        -0.0836
     14 C9         -0.3590   -4.0000   -1.2791 C.3       1 <0>        -0.1139
     15 C10         0.7526   -5.0537   -1.2535 C.3       1 <0>        -0.1531
     16 C11         0.6405   -5.8711    0.0360 C.3       1 <0>         0.0554
     17 O1          0.7201   -4.9951    1.1623 O.3       1 <0>        -0.3722
     18 C12        -0.3217   -4.0185    1.2165 C.3       1 <0>         0.0721
     19 N5          3.5106   -0.6319   -0.0349 N.pl3     1 <0>        -0.6962
     20 C13         4.7747    0.1086   -0.0429 C.3       1 <0>         0.1622
     21 C14         5.1375    0.4825   -1.4815 C.3       1 <0>        -0.1247
     22 C15         6.4576    1.2559   -1.4899 C.3       1 <0>        -0.1092
     23 C16         7.5642    0.3823   -0.8955 C.3       1 <0>         0.1026
     24 C17         7.2014    0.0084    0.5430 C.3       1 <0>        -0.1470
     25 C18         5.8812   -0.7650    0.5515 C.3       1 <0>        -0.1256
     26 O2          8.7972    1.1046   -0.9034 O.3       1 <0>        -0.5676
     27 H2         -0.9521    1.9336    0.0260 H         1 <0>         0.1422
     28 H3          1.2107    3.1488    0.0071 H         1 <0>         0.1670
     29 H4         -2.8196    0.8146    0.0338 H         1 <0>         0.1926
     30 H5          0.7020   -2.5928   -0.0351 H         1 <0>         0.1504
     31 H6         -1.3301   -4.4947   -1.2942 H         1 <0>         0.0582
     32 H7         -0.2513   -3.3779   -2.1676 H         1 <0>         0.0732
     33 H8          0.6479   -5.7145   -2.1140 H         1 <0>         0.0777
     34 H9          1.7236   -4.5597   -1.2884 H         1 <0>         0.0768
     35 H10        -0.3141   -6.3970    0.0513 H         1 <0>         0.0506
     36 H11         1.4548   -6.5944    0.0799 H         1 <0>         0.0977
     37 H12        -0.2006   -3.4071    2.1107 H         1 <0>         0.0976
     38 H13        -1.2890   -4.5201    1.2472 H         1 <0>         0.0441
     39 H14         3.5167   -1.6019   -0.0401 H         1 <0>         0.4111
     40 H15         4.6683    1.0154    0.5524 H         1 <0>         0.0944
     41 H16         5.2438   -0.4243   -2.0769 H         1 <0>         0.0631
     42 H17         4.3491    1.1049   -1.9050 H         1 <0>         0.0749
     43 H18         6.7161    1.5223   -2.5148 H         1 <0>         0.0719
     44 H19         6.3513    2.1627   -0.8946 H         1 <0>         0.0737
     45 H20         7.6705   -0.5245   -1.4909 H         1 <0>         0.0550
     46 H21         7.9897   -0.6140    0.9665 H         1 <0>         0.0705
     47 H22         7.0951    0.9152    1.1384 H         1 <0>         0.0754
     48 H23         5.6228   -1.0314    1.5763 H         1 <0>         0.0738
     49 H24         5.9876   -1.6718   -0.0439 H         1 <0>         0.0696
     50 H25         9.5447    0.6106   -0.5399 H         1 <0>         0.3784
@<TRIPOS>BOND
     1    1    6 ar
     2    1    2 ar
     3    1   27 1
     4    2    3 ar
     5    2   28 1
     6    3    4 ar
     7    4    5 ar
     8    4   19 1
     9    5    6 ar
    10    6    7 1
    11    7    8 1
    12    7   12 2
    13    8    9 2
    14    8   29 1
    15    9   11 1
    16   10   11 1
    17   11   12 1
    18   12   13 1
    19   13   18 1
    20   13   14 1
    21   13   30 1
    22   14   15 1
    23   14   31 1
    24   14   32 1
    25   15   16 1
    26   15   33 1
    27   15   34 1
    28   16   17 1
    29   16   35 1
    30   16   36 1
    31   17   18 1
    32   18   37 1
    33   18   38 1
    34   19   20 1
    35   19   39 1
    36   20   25 1
    37   20   21 1
    38   20   40 1
    39   21   22 1
    40   21   41 1
    41   21   42 1
    42   22   23 1
    43   22   43 1
    44   22   44 1
    45   23   24 1
    46   23   26 1
    47   23   45 1
    48   24   25 1
    49   24   46 1
    50   24   47 1
    51   25   48 1
    52   25   49 1
    53   26   50 1
@<TRIPOS>MOLECULE
CHEMBL1089007__2
   50    53     0     0     0
SMALL
USER_CHARGES

@<TRIPOS>ATOM
      1 C1         -0.0169    1.3938    0.0097 C.ar      1 <0>        -0.2943
      2 C2          1.1896    2.0690    0.0018 C.ar      1 <0>         0.1981
      3 N1          2.3189    1.3778   -0.0127 N.ar      1 <0>        -0.5760
      4 C3          2.3077    0.0526   -0.0197 C.ar      1 <0>         0.5760
      5 N2          1.1755   -0.6332   -0.0130 N.ar      1 <0>        -0.5706
      6 C4          0.0021   -0.0041    0.0020 C.ar      1 <0>         0.3099
      7 C5         -1.2644   -0.7738    0.0105 C.2       1 <0>        -0.2097
      8 C6         -2.5269   -0.2521    0.0198 C.2       1 <0>         0.1051
      9 N3         -3.3933   -1.2824    0.0247 N.pl3     1 <0>        -0.4654
     10 H1         -4.3607   -1.2113    0.0313 H         1 <0>         0.4462
     11 N4         -2.6585   -2.4740    0.0183 N.2       1 <0>        -0.2903
     12 C7         -1.3864   -2.1782    0.0041 C.2       1 <0>         0.1317
     13 C8         -0.2481   -3.1657   -0.0120 C.3       1 <0>        -0.0569
     14 C9         -0.3271   -4.0582    1.2304 C.3       1 <0>        -0.1101
     15 C10         0.7875   -5.1068    1.1639 C.3       1 <0>        -0.1534
     16 C11         0.6493   -5.9054   -0.1349 C.3       1 <0>         0.0575
     17 O1          0.7001   -5.0123   -1.2493 O.3       1 <0>        -0.3778
     18 C12        -0.3463   -4.0392   -1.2654 C.3       1 <0>         0.0744
     19 N5          3.5106   -0.6319   -0.0349 N.pl3     1 <0>        -0.6952
     20 C13         4.7747    0.1086   -0.0429 C.3       1 <0>         0.1622
     21 C14         5.1375    0.4825   -1.4815 C.3       1 <0>        -0.1253
     22 C15         6.4576    1.2559   -1.4899 C.3       1 <0>        -0.1090
     23 C16         7.5642    0.3823   -0.8955 C.3       1 <0>         0.1024
     24 C17         7.2014    0.0084    0.5430 C.3       1 <0>        -0.1467
     25 C18         5.8812   -0.7650    0.5515 C.3       1 <0>        -0.1258
     26 O2          8.7972    1.1046   -0.9034 O.3       1 <0>        -0.5677
     27 H2         -0.9521    1.9336    0.0260 H         1 <0>         0.1392
     28 H3          1.2108    3.1488    0.0071 H         1 <0>         0.1663
     29 H4         -2.7834    0.7970    0.0233 H         1 <0>         0.1871
     30 H5          0.7002   -2.6283   -0.0159 H         1 <0>         0.1360
     31 H6         -0.2016   -3.4490    2.1256 H         1 <0>         0.0660
     32 H7         -1.2958   -4.5570    1.2600 H         1 <0>         0.0662
     33 H8          1.7572   -4.6095    1.1843 H         1 <0>         0.0732
     34 H9          0.7048   -5.7809    2.0165 H         1 <0>         0.0746
     35 H10         1.4651   -6.6246   -0.2080 H         1 <0>         0.0942
     36 H11        -0.3035   -6.4348   -0.1365 H         1 <0>         0.0504
     37 H12        -1.3121   -4.5442   -1.2817 H         1 <0>         0.0530
     38 H13        -0.2478   -3.4140   -2.1528 H         1 <0>         0.0910
     39 H14         3.5167   -1.6019   -0.0401 H         1 <0>         0.4123
     40 H15         4.6684    1.0154    0.5524 H         1 <0>         0.0940
     41 H16         5.2438   -0.4243   -2.0769 H         1 <0>         0.0643
     42 H17         4.3491    1.1049   -1.9050 H         1 <0>         0.0749
     43 H18         6.7161    1.5223   -2.5148 H         1 <0>         0.0720
     44 H19         6.3513    2.1627   -0.8946 H         1 <0>         0.0732
     45 H20         7.6705   -0.5245   -1.4909 H         1 <0>         0.0556
     46 H21         7.9897   -0.6140    0.9665 H         1 <0>         0.0704
     47 H22         7.0951    0.9152    1.1384 H         1 <0>         0.0750
     48 H23         5.6228   -1.0314    1.5763 H         1 <0>         0.0733
     49 H24         5.9876   -1.6718   -0.0439 H         1 <0>         0.0705
     50 H25         9.5447    0.6106   -0.5399 H         1 <0>         0.3783
@<TRIPOS>BOND
     1    1    6 ar
     2    1    2 ar
     3    1   27 1
     4    2    3 ar
     5    2   28 1
     6    3    4 ar
     7    4    5 ar
     8    4   19 1
     9    5    6 ar
    10    6    7 1
    11    7   12 1
    12    7    8 2
    13    8    9 1
    14    8   29 1
    15    9   10 1
    16    9   11 1
    17   11   12 2
    18   12   13 1
    19   13   18 1
    20   13   14 1
    21   13   30 1
    22   14   15 1
    23   14   31 1
    24   14   32 1
    25   15   16 1
    26   15   33 1
    27   15   34 1
    28   16   17 1
    29   16   35 1
    30   16   36 1
    31   17   18 1
    32   18   37 1
    33   18   38 1
    34   19   20 1
    35   19   39 1
    36   20   25 1
    37   20   21 1
    38   20   40 1
    39   21   22 1
    40   21   41 1
    41   21   42 1
    42   22   23 1
    43   22   43 1
    44   22   44 1
    45   23   24 1
    46   23   26 1
    47   23   45 1
    48   24   25 1
    49   24   46 1
    50   24   47 1
    51   25   48 1
    52   25   49 1
    53   26   50 1
@<TRIPOS>MOLECULE
CHEMBL1089007__3
   50    53     0     0     0
SMALL
USER_CHARGES

@<TRIPOS>ATOM
      1 C1         -0.0169    1.3938    0.0097 C.ar      1 <0>        -0.2881
      2 C2          1.1896    2.0690    0.0018 C.ar      1 <0>         0.1976
      3 N1          2.3189    1.3778   -0.0127 N.ar      1 <0>        -0.5761
      4 C3          2.3077    0.0526   -0.0197 C.ar      1 <0>         0.5755
      5 N2          1.1755   -0.6332   -0.0130 N.ar      1 <0>        -0.5780
      6 C4          0.0021   -0.0041    0.0020 C.ar      1 <0>         0.3100
      7 C5         -1.2644   -0.7738    0.0105 C.2       1 <0>        -0.2131
      8 C6         -2.5671   -0.2354    0.0258 C.2       1 <0>         0.0873
      9 N3         -3.4155   -1.2285    0.0291 N.2       1 <0>        -0.2863
     10 H1         -3.0785   -3.3209    0.0154 H         1 <0>         0.4409
     11 N4         -2.6961   -2.4295    0.0161 N.pl3     1 <0>        -0.4671
     12 C7         -1.3827   -2.1348   -0.0011 C.2       1 <0>         0.1584
     13 C8         -0.2483   -3.1265   -0.0256 C.3       1 <0>        -0.0836
     14 C9         -0.3263   -4.0241    1.2132 C.3       1 <0>        -0.1139
     15 C10         0.7839   -5.0768    1.1382 C.3       1 <0>        -0.1531
     16 C11         0.6379   -5.8692   -0.1635 C.3       1 <0>         0.0554
     17 O1          0.6882   -4.9715   -1.2743 O.3       1 <0>        -0.3721
     18 C12        -0.3544   -3.9943   -1.2823 C.3       1 <0>         0.0721
     19 N5          3.5106   -0.6319   -0.0349 N.pl3     1 <0>        -0.6962
     20 C13         4.7747    0.1086   -0.0429 C.3       1 <0>         0.1623
     21 C14         5.1375    0.4825   -1.4815 C.3       1 <0>        -0.1251
     22 C15         6.4576    1.2559   -1.4899 C.3       1 <0>        -0.1092
     23 C16         7.5642    0.3823   -0.8955 C.3       1 <0>         0.1025
     24 C17         7.2014    0.0084    0.5430 C.3       1 <0>        -0.1469
     25 C18         5.8812   -0.7650    0.5515 C.3       1 <0>        -0.1255
     26 O2          8.7972    1.1046   -0.9034 O.3       1 <0>        -0.5676
     27 H2         -0.9521    1.9336    0.0260 H         1 <0>         0.1422
     28 H3          1.2107    3.1488    0.0071 H         1 <0>         0.1670
     29 H4         -2.8196    0.8146    0.0338 H         1 <0>         0.1926
     30 H5          0.7021   -2.5929   -0.0306 H         1 <0>         0.1504
     31 H6         -0.1953   -3.4193    2.1105 H         1 <0>         0.0733
     32 H7         -1.2969   -4.5193    1.2442 H         1 <0>         0.0581
     33 H8          1.7556   -4.5833    1.1573 H         1 <0>         0.0769
     34 H9          0.7016   -5.7542    1.9882 H         1 <0>         0.0777
     35 H10         1.4506   -6.5913   -0.2426 H         1 <0>         0.0977
     36 H11        -0.3170   -6.3949   -0.1639 H         1 <0>         0.0506
     37 H12        -1.3223   -4.4955   -1.2974 H         1 <0>         0.0442
     38 H13        -0.2566   -3.3657   -2.1674 H         1 <0>         0.0975
     39 H14         3.5167   -1.6019   -0.0401 H         1 <0>         0.4111
     40 H15         4.6683    1.0154    0.5524 H         1 <0>         0.0942
     41 H16         5.2438   -0.4243   -2.0769 H         1 <0>         0.0638
     42 H17         4.3491    1.1049   -1.9050 H         1 <0>         0.0751
     43 H18         6.7161    1.5223   -2.5148 H         1 <0>         0.0721
     44 H19         6.3513    2.1627   -0.8946 H         1 <0>         0.0735
     45 H20         7.6705   -0.5245   -1.4909 H         1 <0>         0.0553
     46 H21         7.9897   -0.6140    0.9665 H         1 <0>         0.0703
     47 H22         7.0951    0.9152    1.1384 H         1 <0>         0.0752
     48 H23         5.6228   -1.0314    1.5763 H         1 <0>         0.0730
     49 H24         5.9876   -1.6718   -0.0439 H         1 <0>         0.0700
     50 H25         9.5447    0.6106   -0.5399 H         1 <0>         0.3783
@<TRIPOS>BOND
     1    1    6 ar
     2    1    2 ar
     3    1   27 1
     4    2    3 ar
     5    2   28 1
     6    3    4 ar
     7    4    5 ar
     8    4   19 1
     9    5    6 ar
    10    6    7 1
    11    7    8 1
    12    7   12 2
    13    8    9 2
    14    8   29 1
    15    9   11 1
    16   10   11 1
    17   11   12 1
    18   12   13 1
    19   13   18 1
    20   13   14 1
    21   13   30 1
    22   14   15 1
    23   14   31 1
    24   14   32 1
    25   15   16 1
    26   15   33 1
    27   15   34 1
    28   16   17 1
    29   16   35 1
    30   16   36 1
    31   17   18 1
    32   18   37 1
    33   18   38 1
    34   19   20 1
    35   19   39 1
    36   20   25 1
    37   20   21 1
    38   20   40 1
    39   21   22 1
    40   21   41 1
    41   21   42 1
    42   22   23 1
    43   22   43 1
    44   22   44 1
    45   23   24 1
    46   23   26 1
    47   23   45 1
    48   24   25 1
    49   24   46 1
    50   24   47 1
    51   25   48 1
    52   25   49 1
    53   26   50 1
@<TRIPOS>MOLECULE
CHEMBL385177
   51    53     0     0     0
SMALL
USER_CHARGES

@<TRIPOS>ATOM
      1 C1         -0.0225    1.8097    0.0120 C.3       1 <0>        -0.6501
      2 S1          0.0021   -0.0041    0.0020 S.o2      1 <0>         2.4977
      3 O1          0.8352   -0.4880    1.0465 O.2       1 <0>        -0.9355
      4 O2         -1.3147   -0.5105   -0.1678 O.2       1 <0>        -0.9354
      5 C2          0.8454   -0.4373   -1.4831 C.ar      1 <0>        -0.6518
      6 C3          0.1346   -0.6126   -2.6557 C.ar      1 <0>        -0.0244
      7 C4          0.7962   -0.9525   -3.8208 C.ar      1 <0>        -0.1184
      8 C5          2.1688   -1.1167   -3.8136 C.ar      1 <0>        -0.0561
      9 C6          2.8797   -0.9405   -2.6412 C.ar      1 <0>        -0.1183
     10 C7          2.2186   -0.5964   -1.4770 C.ar      1 <0>        -0.0244
     11 C8          2.8899   -1.4882   -5.0836 C.3       1 <0>         0.1517
     12 N1          3.2853   -0.2700   -5.7949 N.am      1 <0>        -0.7055
     13 C9          3.9482   -0.3580   -6.9650 C.2       1 <0>         0.5736
     14 O3          4.2180   -1.4477   -7.4300 O.2       1 <0>        -0.5211
     15 C10         4.3484    0.8750   -7.6850 C.ar      1 <0>         0.1533
     16 C11         5.0270    0.7699   -8.8943 C.ar      1 <0>        -0.1940
     17 C12         5.4033    1.9298   -9.5712 C.ar      1 <0>         0.3038
     18 C13         5.0775    3.1720   -8.9971 C.ar      1 <0>        -0.1436
     19 C14         4.3869    3.1921   -7.7659 C.ar      1 <0>         0.2629
     20 N2          4.0479    2.0586   -7.1667 N.ar      1 <0>        -0.5016
     21 C15         4.0357    4.4787   -7.1467 C.2       1 <0>        -0.1449
     22 C16         3.3779    4.5032   -5.9743 C.2       1 <0>        -0.0287
     23 C17         3.0261    5.7923   -5.3539 C.ar      1 <0>        -0.0769
     24 C18         3.3693    6.9918   -5.9839 C.ar      1 <0>        -0.1031
     25 C19         3.0366    8.1946   -5.3971 C.ar      1 <0>        -0.1204
     26 C20         2.3651    8.2159   -4.1872 C.ar      1 <0>        -0.1083
     27 C21         2.0223    7.0324   -3.5572 C.ar      1 <0>        -0.1224
     28 C22         2.3424    5.8218   -4.1351 C.ar      1 <0>        -0.0959
     29 C23         5.4403    4.3941   -9.6494 C.1       1 <0>         0.2574
     30 N3          5.7281    5.3636  -10.1669 N.1       1 <0>        -0.4069
     31 N4          6.0813    1.8604  -10.7785 N.pl3     1 <0>        -0.8429
     32 H1          1.0001    2.1870    0.0043 H         1 <0>         0.1322
     33 H2         -0.5497    2.1708   -0.8711 H         1 <0>         0.1322
     34 H3         -0.5327    2.1613    0.9088 H         1 <0>         0.1343
     35 H4         -0.9378   -0.4844   -2.6614 H         1 <0>         0.1453
     36 H5          0.2407   -1.0902   -4.7367 H         1 <0>         0.1368
     37 H6          3.9520   -1.0690   -2.6355 H         1 <0>         0.1368
     38 H7          2.7745   -0.4551   -0.5619 H         1 <0>         0.1454
     39 H8          3.7781   -2.0711   -4.8398 H         1 <0>         0.0872
     40 H9          2.2292   -2.0804   -5.7167 H         1 <0>         0.0872
     41 H10         3.0699    0.5999   -5.4237 H         1 <0>         0.4143
     42 H11         5.2609   -0.2011   -9.3053 H         1 <0>         0.1586
     43 H12         4.3061    5.4040   -7.6337 H         1 <0>         0.1311
     44 H13         3.1076    3.5779   -5.4873 H         1 <0>         0.1394
     45 H14         3.8940    6.9768   -6.9278 H         1 <0>         0.1246
     46 H15         3.3011    9.1223   -5.8827 H         1 <0>         0.1255
     47 H16         2.1075    9.1609   -3.7322 H         1 <0>         0.1245
     48 H17         1.4989    7.0568   -2.6129 H         1 <0>         0.1259
     49 H18         2.0697    4.8989   -3.6449 H         1 <0>         0.1272
     50 H19         6.2999    0.9971  -11.1630 H         1 <0>         0.4141
     51 H20         6.3370    2.6750  -11.2387 H         1 <0>         0.4076
@<TRIPOS>BOND
     1    1    2 1
     2    1   32 1
     3    1   33 1
     4    1   34 1
     5    2    3 2
     6    2    4 2
     7    2    5 1
     8    5   10 ar
     9    5    6 ar
    10    6    7 ar
    11    6   35 1
    12    7    8 ar
    13    7   36 1
    14    8    9 ar
    15    8   11 1
    16    9   10 ar
    17    9   37 1
    18   10   38 1
    19   11   12 1
    20   11   39 1
    21   11   40 1
    22   12   13 am
    23   12   41 1
    24   13   14 2
    25   13   15 1
    26   15   20 ar
    27   15   16 ar
    28   16   17 ar
    29   16   42 1
    30   17   18 ar
    31   17   31 1
    32   18   19 ar
    33   18   29 1
    34   19   20 ar
    35   19   21 1
    36   21   22 2
    37   21   43 1
    38   22   23 1
    39   22   44 1
    40   23   28 ar
    41   23   24 ar
    42   24   25 ar
    43   24   45 1
    44   25   26 ar
    45   25   46 1
    46   26   27 ar
    47   26   47 1
    48   27   28 ar
    49   27   48 1
    50   28   49 1
    51   29   30 3
    52   31   50 1
    53   31   51 1
@<TRIPOS>MOLECULE
CHEMBL194806
   57    61     0     0     0
SMALL
USER_CHARGES

@<TRIPOS>ATOM
      1 C1          0.4085    0.5382    2.4237 C.ar      1 <0>        -0.0718
      2 C2          1.4707    1.4064    2.2487 C.ar      1 <0>        -0.1522
      3 C3          2.4562    1.1206    1.3218 C.ar      1 <0>        -0.0670
      4 C4          2.3824   -0.0346    0.5668 C.ar      1 <0>        -0.0990
      5 C5          1.3160   -0.9091    0.7405 C.ar      1 <0>         0.2080
      6 C6          0.3282   -0.6181    1.6727 C.ar      1 <0>        -0.1760
      7 N1          1.2375   -2.0783   -0.0214 N.pl3     1 <0>        -0.6811
      8 C7          0.0905   -2.8737    0.0359 C.ar      1 <0>         0.2113
      9 C8         -1.1696   -2.2594    0.0190 C.ar      1 <0>        -0.1622
     10 C9         -2.3150   -2.9848    0.0726 C.ar      1 <0>        -0.0280
     11 C10        -2.2480   -4.3886    0.1472 C.ar      1 <0>        -0.1906
     12 C11        -0.9301   -5.0389    0.1653 C.ar      1 <0>         0.1291
     13 C12         0.2235   -4.2294    0.1015 C.ar      1 <0>        -0.1445
     14 N2         -1.1434   -6.3416    0.2380 N.2       1 <0>        -0.2886
     15 N3         -2.5212   -6.5833    0.2686 N.pl3     1 <0>        -0.4167
     16 H1         -2.9321   -7.4603    0.3216 H         1 <0>         0.4439
     17 C13        -3.1928   -5.4143    0.2143 C.2       1 <0>         0.1435
     18 C14        -4.6596   -5.2498    0.2246 C.ar      1 <0>        -0.0394
     19 C15        -5.2497   -4.2733    1.0327 C.ar      1 <0>        -0.0533
     20 C16        -6.6212   -4.1190    1.0435 C.ar      1 <0>        -0.1177
     21 C17        -7.4198   -4.9266    0.2575 C.ar      1 <0>        -0.0738
     22 C18        -6.8440   -5.9062   -0.5546 C.ar      1 <0>        -0.1422
     23 C19        -5.4600   -6.0641   -0.5758 C.ar      1 <0>        -0.0403
     24 C20        -7.7012   -6.7698   -1.3948 C.2       1 <0>         0.5694
     25 O1         -7.1987   -7.6219   -2.1012 O.2       1 <0>        -0.5233
     26 N4         -9.0396   -6.6121   -1.3775 N.am      1 <0>        -0.7276
     27 C21        -9.8888   -7.4677   -2.2099 C.3       1 <0>         0.1354
     28 C22        -9.9936   -6.8718   -3.6167 C.3       1 <0>        -0.1641
     29 C23       -10.9449   -7.7264   -4.4572 C.3       1 <0>        -0.0034
     30 N5        -12.2728   -7.7455   -3.8321 N.4       1 <0>        -0.5067
     31 C24       -12.1925   -8.3811   -2.5114 C.3       1 <0>        -0.0016
     32 C25       -11.2893   -7.5517   -1.5961 C.3       1 <0>        -0.1587
     33 Cl1         3.6196   -0.3927   -0.5972 Cl        1 <0>        -0.0674
     34 H2         -0.3571    0.7625    3.1517 H         1 <0>         0.1308
     35 H3          1.5304    2.3100    2.8372 H         1 <0>         0.1319
     36 H4          3.2841    1.8010    1.1875 H         1 <0>         0.1360
     37 H5         -0.5015   -1.2956    1.8105 H         1 <0>         0.1402
     38 H6          1.9794   -2.3373   -0.5901 H         1 <0>         0.4147
     39 H7         -1.2301   -1.1826   -0.0377 H         1 <0>         0.1344
     40 H8         -3.2735   -2.4874    0.0584 H         1 <0>         0.1286
     41 H9          1.2050   -4.6798    0.1088 H         1 <0>         0.1348
     42 H10        -4.6311   -3.6388    1.6500 H         1 <0>         0.1418
     43 H11        -7.0721   -3.3634    1.6697 H         1 <0>         0.1424
     44 H12        -8.4923   -4.8005    0.2712 H         1 <0>         0.1284
     45 H13        -5.0094   -6.8168   -1.2057 H         1 <0>         0.1396
     46 H14        -9.4405   -5.9321   -0.8138 H         1 <0>         0.4067
     47 H15        -9.4555   -8.4662   -2.2671 H         1 <0>         0.1075
     48 H16       -10.3787   -5.8540   -3.5531 H         1 <0>         0.0924
     49 H17        -9.0078   -6.8603   -4.0815 H         1 <0>         0.1180
     50 H18       -11.0217   -7.3050   -5.4595 H         1 <0>         0.1382
     51 H19       -10.5588   -8.7438   -4.5203 H         1 <0>         0.1346
     52 H20       -12.6087   -6.7996   -3.7292 H         1 <0>         0.4285
     53 H21       -13.1904   -8.4430   -2.0772 H         1 <0>         0.1402
     54 H22       -11.7799   -9.3845   -2.6160 H         1 <0>         0.1351
     55 H23       -11.2295   -8.0261   -0.6166 H         1 <0>         0.1207
     56 H24       -11.7012   -6.5480   -1.4906 H         1 <0>         0.0960
     57 H25       -12.9108   -8.2652   -4.4160 H         1 <0>         0.4351
@<TRIPOS>BOND
     1    1    6 ar
     2    1    2 ar
     3    1   34 1
     4    2    3 ar
     5    2   35 1
     6    3    4 ar
     7    3   36 1
     8    4    5 ar
     9    4   33 1
    10    5    6 ar
    11    5    7 1
    12    6   37 1
    13    7    8 1
    14    7   38 1
    15    8   13 ar
    16    8    9 ar
    17    9   10 ar
    18    9   39 1
    19   10   11 ar
    20   10   40 1
    21   11   17 2
    22   11   12 ar
    23   12   13 ar
    24   12   14 2
    25   13   41 1
    26   14   15 1
    27   15   16 1
    28   15   17 1
    29   17   18 1
    30   18   23 ar
    31   18   19 ar
    32   19   20 ar
    33   19   42 1
    34   20   21 ar
    35   20   43 1
    36   21   22 ar
    37   21   44 1
    38   22   23 ar
    39   22   24 1
    40   23   45 1
    41   24   25 2
    42   24   26 am
    43   26   27 1
    44   26   46 1
    45   27   32 1
    46   27   28 1
    47   27   47 1
    48   28   29 1
    49   28   48 1
    50   28   49 1
    51   29   30 1
    52   29   50 1
    53   29   51 1
    54   30   31 1
    55   30   52 1
    56   30   57 1
    57   31   32 1
    58   31   53 1
    59   31   54 1
    60   32   55 1
    61   32   56 1
@<TRIPOS>MOLECULE
CHEMBL194806__1
   57    61     0     0     0
SMALL
USER_CHARGES

@<TRIPOS>ATOM
      1 C1          0.3982    0.5513    2.4052 C.ar      1 <0>        -0.0715
      2 C2          1.4613    1.4184    2.2303 C.ar      1 <0>        -0.1497
      3 C3          2.4510    1.1274    1.3095 C.ar      1 <0>        -0.0673
      4 C4          2.3803   -0.0318    0.5602 C.ar      1 <0>        -0.0974
      5 C5          1.3129   -0.9052    0.7338 C.ar      1 <0>         0.2047
      6 C6          0.3212   -0.6091    1.6602 C.ar      1 <0>        -0.1756
      7 N1          1.2375   -2.0783   -0.0224 N.pl3     1 <0>        -0.6800
      8 C7          0.0906   -2.8737    0.0350 C.ar      1 <0>         0.2230
      9 C8         -1.1702   -2.2742    0.0191 C.ar      1 <0>        -0.1774
     10 C9         -2.2999   -3.0359    0.0740 C.ar      1 <0>        -0.0194
     11 C10        -2.1990   -4.4281    0.1467 C.ar      1 <0>        -0.1826
     12 C11        -0.9322   -5.0404    0.1631 C.ar      1 <0>         0.1590
     13 C12         0.2120   -4.2498    0.1012 C.ar      1 <0>        -0.1788
     14 N2         -1.1437   -6.3937    0.2378 N.pl3     1 <0>        -0.5001
     15 N3         -2.5191   -6.6447    0.2686 N.2       1 <0>        -0.2312
     16 H1         -0.4489   -7.0699    0.2646 H         1 <0>         0.4450
     17 C13        -3.1817   -5.5149    0.2170 C.2       1 <0>         0.1335
     18 C14        -4.6563   -5.3631    0.2277 C.ar      1 <0>        -0.0154
     19 C15        -5.2416   -4.2690    0.8660 C.ar      1 <0>        -0.0608
     20 C16        -6.6151   -4.1257    0.8777 C.ar      1 <0>        -0.1211
     21 C17        -7.4182   -5.0628    0.2586 C.ar      1 <0>        -0.0769
     22 C18        -6.8449   -6.1618   -0.3840 C.ar      1 <0>        -0.1465
     23 C19        -5.4589   -6.3083   -0.4037 C.ar      1 <0>        -0.0262
     24 C20        -7.7057   -7.1652   -1.0463 C.2       1 <0>         0.5699
     25 O1         -7.2050   -8.1214   -1.6052 O.2       1 <0>        -0.5226
     26 N4         -9.0455   -7.0195   -1.0302 N.am      1 <0>        -0.7290
     27 C21        -9.8983   -8.0137   -1.6864 C.3       1 <0>         0.1356
     28 C22       -10.0354   -7.6698   -3.1724 C.3       1 <0>        -0.1641
     29 C23       -10.9904   -8.6653   -3.8346 C.3       1 <0>        -0.0034
     30 N5        -12.3068   -8.5891   -3.1898 N.4       1 <0>        -0.5066
     31 C24       -12.1952   -8.9870   -1.7813 C.3       1 <0>        -0.0015
     32 C25       -11.2866   -8.0039   -1.0401 C.3       1 <0>        -0.1585
     33 Cl1         3.6224   -0.3962   -0.5966 Cl        1 <0>        -0.0669
     34 H2         -0.3706    0.7797    3.1285 H         1 <0>         0.1319
     35 H3          1.5185    2.3252    2.8141 H         1 <0>         0.1329
     36 H4          3.2798    1.8067    1.1755 H         1 <0>         0.1368
     37 H5         -0.5093   -1.2857    1.7979 H         1 <0>         0.1409
     38 H6          1.9815   -2.3401   -0.5870 H         1 <0>         0.4151
     39 H7         -1.2513   -1.1987   -0.0366 H         1 <0>         0.1383
     40 H8         -3.2713   -2.5640    0.0616 H         1 <0>         0.1332
     41 H9          1.1897   -4.7085    0.1090 H         1 <0>         0.1331
     42 H10        -4.6190   -3.5327    1.3524 H         1 <0>         0.1386
     43 H11        -7.0629   -3.2772    1.3735 H         1 <0>         0.1400
     44 H12        -8.4918   -4.9456    0.2718 H         1 <0>         0.1264
     45 H13        -5.0100   -7.1541   -0.9031 H         1 <0>         0.1430
     46 H14        -9.4450   -6.2565   -0.5841 H         1 <0>         0.4063
     47 H15        -9.4534   -9.0030   -1.5795 H         1 <0>         0.1073
     48 H16       -10.4321   -6.6600   -3.2772 H         1 <0>         0.0921
     49 H17        -9.0581   -7.7292   -3.6514 H         1 <0>         0.1182
     50 H18       -11.0901   -8.4234   -4.8928 H         1 <0>         0.1376
     51 H19       -10.5926   -9.6746   -3.7295 H         1 <0>         0.1344
     52 H20       -12.6527   -7.6428   -3.2445 H         1 <0>         0.4284
     53 H21       -13.1844   -8.9827   -1.3236 H         1 <0>         0.1397
     54 H22       -11.7718   -9.9895   -1.7199 H         1 <0>         0.1349
     55 H23       -11.2036   -8.3021    0.0051 H         1 <0>         0.1206
     56 H24       -11.7093   -7.0010   -1.1006 H         1 <0>         0.0957
     57 H25       -12.9483   -9.2075   -3.6631 H         1 <0>         0.4345
@<TRIPOS>BOND
     1    1    6 ar
     2    1    2 ar
     3    1   34 1
     4    2    3 ar
     5    2   35 1
     6    3    4 ar
     7    3   36 1
     8    4    5 ar
     9    4   33 1
    10    5    6 ar
    11    5    7 1
    12    6   37 1
    13    7    8 1
    14    7   38 1
    15    8   13 ar
    16    8    9 ar
    17    9   10 ar
    18    9   39 1
    19   10   11 ar
    20   10   40 1
    21   11   17 1
    22   11   12 ar
    23   12   13 ar
    24   12   14 1
    25   13   41 1
    26   14   16 1
    27   14   15 1
    28   15   17 2
    29   17   18 1
    30   18   23 ar
    31   18   19 ar
    32   19   20 ar
    33   19   42 1
    34   20   21 ar
    35   20   43 1
    36   21   22 ar
    37   21   44 1
    38   22   23 ar
    39   22   24 1
    40   23   45 1
    41   24   25 2
    42   24   26 am
    43   26   27 1
    44   26   46 1
    45   27   32 1
    46   27   28 1
    47   27   47 1
    48   28   29 1
    49   28   48 1
    50   28   49 1
    51   29   30 1
    52   29   50 1
    53   29   51 1
    54   30   31 1
    55   30   52 1
    56   30   57 1
    57   31   32 1
    58   31   53 1
    59   31   54 1
    60   32   55 1
    61   32   56 1
@<TRIPOS>MOLECULE
CHEMBL193563
   62    66     0     0     0
SMALL
USER_CHARGES

@<TRIPOS>ATOM
      1 C1         -0.2865    1.4467   -0.8371 C.3       1 <0>        -0.1547
      2 C2         -0.1714   -0.0482   -0.5325 C.3       1 <0>        -0.1021
      3 C3          0.3848   -0.2396    0.8799 C.3       1 <0>        -0.1632
      4 C4         -1.5541   -0.6962   -0.6283 C.3       1 <0>        -0.1421
      5 C5         -1.4218   -2.2096   -0.4470 C.3       1 <0>         0.0106
      6 H1         -0.9074   -2.4198    0.4907 H         1 <0>         0.1463
      7 C6         -2.8160   -2.8446   -0.4184 C.3       1 <0>         0.1052
      8 N1         -2.6616   -4.3069   -0.3751 N.pl3     1 <0>        -0.6185
      9 C7         -1.7734   -4.9397   -1.3624 C.3       1 <0>         0.1008
     10 C8         -0.4284   -4.2059   -1.3464 C.3       1 <0>        -0.0219
     11 N2         -0.6520   -2.7711   -1.5642 N.4       1 <0>        -0.5048
     12 C9         -3.3357   -5.0691    0.5722 C.ar      1 <0>         0.3339
     13 C10        -4.2554   -4.4639    1.4267 C.ar      1 <0>        -0.1599
     14 C11        -4.9071   -5.2700    2.3603 C.ar      1 <0>         0.0145
     15 C12        -4.5900   -6.6445    2.3753 C.ar      1 <0>         0.1028
     16 N3         -3.6978   -7.1205    1.5169 N.ar      1 <0>        -0.1761
     17 N4         -3.1072   -6.3723    0.6584 N.ar      1 <0>        -0.2906
     18 C13        -5.2479   -7.5492    3.3427 C.ar      1 <0>        -0.0442
     19 C14        -5.2553   -7.2437    4.6935 C.ar      1 <0>        -0.0759
     20 C15        -5.8712   -8.0894    5.6083 C.ar      1 <0>        -0.1212
     21 C16        -6.4832   -9.2380    5.2053 C.ar      1 <0>        -0.0795
     22 C17        -6.4998   -9.5873    3.8440 C.ar      1 <0>        -0.0530
     23 C18        -5.8821   -8.7342    2.8972 C.ar      1 <0>        -0.0219
     24 C19        -5.9044   -9.0808    1.5389 C.ar      1 <0>        -0.1064
     25 C20        -6.5238  -10.2285    1.1456 C.ar      1 <0>        -0.1056
     26 C21        -7.1377  -11.0657    2.0748 C.ar      1 <0>        -0.1133
     27 C22        -7.1241  -10.7670    3.4028 C.ar      1 <0>        -0.1006
     28 C23        -5.8986   -4.7017    3.3045 C.ar      1 <0>        -0.0192
     29 C24        -7.1985   -5.2118    3.3743 C.ar      1 <0>        -0.1376
     30 C25        -8.0895   -4.6535    4.2679 C.ar      1 <0>         0.1120
     31 N5         -7.7288   -3.6528    5.0480 N.ar      1 <0>        -0.4703
     32 C26        -6.5130   -3.1422    5.0137 C.ar      1 <0>         0.1070
     33 C27        -5.5577   -3.6446    4.1538 C.ar      1 <0>        -0.1570
     34 H2          0.6986    1.9083   -0.7689 H         1 <0>         0.0684
     35 H3         -0.6828    1.5831   -1.8433 H         1 <0>         0.0622
     36 H4         -0.9573    1.9138   -0.1160 H         1 <0>         0.0664
     37 H5          0.4994   -0.5153   -1.2536 H         1 <0>         0.0633
     38 H6          0.4668   -1.3047    1.0968 H         1 <0>         0.0507
     39 H7          1.3699    0.2220    0.9481 H         1 <0>         0.0713
     40 H8         -0.2860    0.2275    1.6009 H         1 <0>         0.0698
     41 H9         -2.1996   -0.2919    0.1515 H         1 <0>         0.1167
     42 H10        -1.9880   -0.4838   -1.6054 H         1 <0>         0.0948
     43 H11        -3.3542   -2.5067    0.4672 H         1 <0>         0.1258
     44 H12        -3.3662   -2.5607   -1.3155 H         1 <0>         0.0991
     45 H13        -1.6223   -5.9870   -1.1009 H         1 <0>         0.1419
     46 H14        -2.2183   -4.8675   -2.3548 H         1 <0>         0.0938
     47 H15         0.0560   -4.3557   -0.3815 H         1 <0>         0.1352
     48 H16         0.2094   -4.5986   -2.1383 H         1 <0>         0.1492
     49 H17        -1.1635   -2.6384   -2.4238 H         1 <0>         0.4268
     50 H18        -4.4570   -3.4045    1.3683 H         1 <0>         0.1525
     51 H19        -4.7773   -6.3392    5.0396 H         1 <0>         0.1200
     52 H20        -5.8643   -7.8319    6.6571 H         1 <0>         0.1301
     53 H21        -6.9560   -9.8812    5.9328 H         1 <0>         0.1339
     54 H22        -5.4332   -8.4406    0.8077 H         1 <0>         0.1216
     55 H23        -6.5395  -10.4931    0.0987 H         1 <0>         0.1245
     56 H24        -7.6225  -11.9700    1.7376 H         1 <0>         0.1277
     57 H25        -7.6030  -11.4257    4.1122 H         1 <0>         0.1324
     58 H26        -7.5009   -6.0305    2.7381 H         1 <0>         0.1371
     59 H27        -9.0959   -5.0407    4.3291 H         1 <0>         0.1636
     60 H28        -6.2605   -2.3229    5.6704 H         1 <0>         0.1627
     61 H29        -4.5629   -3.2248    4.1343 H         1 <0>         0.1354
     62 H30         0.2376   -2.2992   -1.6289 H         1 <0>         0.4298
@<TRIPOS>BOND
     1    1    2 1
     2    1   34 1
     3    1   35 1
     4    1   36 1
     5    2    3 1
     6    2    4 1
     7    2   37 1
     8    3   38 1
     9    3   39 1
    10    3   40 1
    11    4    5 1
    12    4   41 1
    13    4   42 1
    14    5    6 1
    15    5   11 1
    16    5    7 1
    17    7    8 1
    18    7   43 1
    19    7   44 1
    20    8    9 1
    21    8   12 1
    22    9   10 1
    23    9   45 1
    24    9   46 1
    25   10   11 1
    26   10   47 1
    27   10   48 1
    28   11   49 1
    29   11   62 1
    30   12   17 ar
    31   12   13 ar
    32   13   14 ar
    33   13   50 1
    34   14   15 ar
    35   14   28 1
    36   15   16 ar
    37   15   18 1
    38   16   17 ar
    39   18   23 ar
    40   18   19 ar
    41   19   20 ar
    42   19   51 1
    43   20   21 ar
    44   20   52 1
    45   21   22 ar
    46   21   53 1
    47   22   27 ar
    48   22   23 ar
    49   23   24 ar
    50   24   25 ar
    51   24   54 1
    52   25   26 ar
    53   25   55 1
    54   26   27 ar
    55   26   56 1
    56   27   57 1
    57   28   33 ar
    58   28   29 ar
    59   29   30 ar
    60   29   58 1
    61   30   31 ar
    62   30   59 1
    63   31   32 ar
    64   32   33 ar
    65   32   60 1
    66   33   61 1
@<TRIPOS>MOLECULE
CHEMBL585916
   44    46     0     0     0
SMALL
USER_CHARGES

@<TRIPOS>ATOM
      1 C1          1.3810    1.7327    0.6418 C.3       1 <0>        -0.6372
      2 S1          1.2160   -0.0713    0.5457 S.o2      1 <0>         2.5277
      3 O1          2.1794   -0.6961    1.3828 O.2       1 <0>        -1.0256
      4 O2         -0.1540   -0.4419    0.6161 O.2       1 <0>        -1.0256
      5 N1          1.6802   -0.4595   -0.9957 N.2       1 <0>        -1.0889
      6 C2          1.6720   -1.7898   -1.4118 C.ar      1 <0>         0.3131
      7 C3          1.2684   -2.7896   -0.5333 C.ar      1 <0>        -0.2707
      8 C4          1.2595   -4.1052   -0.9424 C.ar      1 <0>        -0.0048
      9 C5          1.6557   -4.4341   -2.2389 C.ar      1 <0>        -0.1971
     10 C6          2.0602   -3.4295   -3.1184 C.ar      1 <0>        -0.0370
     11 C7          2.0621   -2.1147   -2.7067 C.ar      1 <0>        -0.1928
     12 C8          1.6475   -5.8482   -2.6811 C.ar      1 <0>         0.3024
     13 C9          2.0482   -6.1894   -3.9767 C.ar      1 <0>        -0.2820
     14 C10         2.0237   -7.5222   -4.3442 C.ar      1 <0>         0.1815
     15 N2          1.6248   -8.4292   -3.4659 N.ar      1 <0>        -0.5812
     16 C11         1.2503   -8.0778   -2.2444 C.ar      1 <0>         0.5543
     17 N3          1.2636   -6.8144   -1.8493 N.ar      1 <0>        -0.5678
     18 N4          0.8398   -9.0584   -1.3560 N.pl3     1 <0>        -0.6476
     19 C12         0.9336  -10.4073   -1.7115 C.ar      1 <0>         0.2444
     20 C13         2.0357  -10.8647   -2.4224 C.ar      1 <0>        -0.1350
     21 C14         2.1253  -12.1978   -2.7720 C.ar      1 <0>        -0.0017
     22 C15         1.1192  -13.0768   -2.4154 C.ar      1 <0>        -0.7039
     23 C16         0.0206  -12.6247   -1.7076 C.ar      1 <0>         0.0058
     24 C17        -0.0723  -11.2941   -1.3495 C.ar      1 <0>        -0.1749
     25 S2          1.2369  -14.7766   -2.8644 S.o2      1 <0>         2.7047
     26 O3         -0.0905  -15.2833   -2.8878 O.2       1 <0>        -0.9681
     27 O4          2.0964  -14.8396   -3.9943 O.2       1 <0>        -0.9648
     28 N5          2.0194  -15.5559   -1.6304 N.pl3     1 <0>        -1.2501
     29 H1          2.4165    2.0136    0.4497 H         1 <0>         0.1163
     30 H2          0.7344    2.1968   -0.1029 H         1 <0>         0.1163
     31 H3          1.0911    2.0716    1.6364 H         1 <0>         0.1033
     32 H4          0.9620   -2.5346    0.4705 H         1 <0>         0.1065
     33 H5          0.9463   -4.8813   -0.2598 H         1 <0>         0.1149
     34 H6          2.3674   -3.6819   -4.1225 H         1 <0>         0.1127
     35 H7          2.3709   -1.3362   -3.3886 H         1 <0>         0.1184
     36 H8          2.3690   -5.4297   -4.6741 H         1 <0>         0.1458
     37 H9          2.3264   -7.8202   -5.3372 H         1 <0>         0.1650
     38 H10         0.4872   -8.8091   -0.4874 H         1 <0>         0.4259
     39 H11         2.8216  -10.1785   -2.7019 H         1 <0>         0.1402
     40 H12         2.9820  -12.5540   -3.3248 H         1 <0>         0.1424
     41 H13        -0.7635  -13.3139   -1.4306 H         1 <0>         0.1430
     42 H14        -0.9282  -10.9426   -0.7925 H         1 <0>         0.1356
     43 H15         1.8243  -16.4877   -1.4443 H         1 <0>         0.4193
     44 H16         2.6729  -15.0806   -1.0938 H         1 <0>         0.4171
@<TRIPOS>BOND
     1    1    2 1
     2    1   29 1
     3    1   30 1
     4    1   31 1
     5    2    3 2
     6    2    4 2
     7    2    5 1
     8    5    6 1
     9    6   11 ar
    10    6    7 ar
    11    7    8 ar
    12    7   32 1
    13    8    9 ar
    14    8   33 1
    15    9   10 ar
    16    9   12 1
    17   10   11 ar
    18   10   34 1
    19   11   35 1
    20   12   17 ar
    21   12   13 ar
    22   13   14 ar
    23   13   36 1
    24   14   15 ar
    25   14   37 1
    26   15   16 ar
    27   16   17 ar
    28   16   18 1
    29   18   19 1
    30   18   38 1
    31   19   24 ar
    32   19   20 ar
    33   20   21 ar
    34   20   39 1
    35   21   22 ar
    36   21   40 1
    37   22   23 ar
    38   22   25 1
    39   23   24 ar
    40   23   41 1
    41   24   42 1
    42   25   26 2
    43   25   27 2
    44   25   28 1
    45   28   43 1
    46   28   44 1
@<TRIPOS>MOLECULE
CHEMBL570554
   55    59     0     0     0
SMALL
USER_CHARGES

@<TRIPOS>ATOM
      1 C1         -1.0836   -0.0479   -2.2292 C.3       1 <0>        -0.0610
      2 C2         -0.5260   -0.6950   -0.9877 C.2       1 <0>         0.2280
      3 N1          0.3122   -0.1209   -0.1257 N.2       1 <0>        -0.5348
      4 C3          0.5983   -0.9571    0.8396 C.2       1 <0>         0.2614
      5 N2         -0.0660   -2.1055    0.6071 N.pl3     1 <0>        -0.3273
      6 N3         -0.7912   -1.9087   -0.5795 N.2       1 <0>        -0.3142
      7 C4         -0.0421   -3.2656    1.3958 C.ar      1 <0>         0.1289
      8 C5          0.7218   -3.3013    2.5547 C.ar      1 <0>        -0.1102
      9 C6          0.7456   -4.4425    3.3308 C.ar      1 <0>        -0.0888
     10 C7          0.0052   -5.5552    2.9524 C.ar      1 <0>         0.1675
     11 C8         -0.7590   -5.5191    1.7928 C.ar      1 <0>        -0.1254
     12 C9         -0.7868   -4.3757    1.0202 C.ar      1 <0>        -0.0867
     13 N4          0.0294   -6.7122    3.7386 N.pl3     1 <0>        -0.6366
     14 C10         0.1488   -6.6119    5.1150 C.ar      1 <0>         0.5639
     15 N5          0.1224   -5.4130    5.6797 N.ar      1 <0>        -0.5563
     16 C11         0.2329   -5.2755    6.9912 C.ar      1 <0>         0.1949
     17 C12         0.3780   -6.4031    7.7804 C.ar      1 <0>        -0.2650
     18 C13         0.4023   -7.6531    7.1569 C.ar      1 <0>         0.2614
     19 N6          0.2807   -7.7160    5.8329 N.ar      1 <0>        -0.5548
     20 C14         0.5562   -8.8916    7.9586 C.ar      1 <0>        -0.0119
     21 C15         0.6720   -8.8145    9.3433 C.ar      1 <0>        -0.0990
     22 C16         0.8166   -9.9805   10.0940 C.ar      1 <0>         0.0226
     23 C17         0.8446  -11.2211    9.4542 C.ar      1 <0>        -0.1365
     24 C18         0.7289  -11.2928    8.0740 C.ar      1 <0>         0.2166
     25 C19         0.5791  -10.1330    7.3261 C.ar      1 <0>        -0.1213
     26 N7          0.7572  -12.5354    7.4355 N.pl3     1 <0>        -0.6295
     27 C20         0.7692  -12.6325    5.9673 C.3       1 <0>         0.0850
     28 C21         1.9137  -13.5648    5.5538 C.3       1 <0>         0.0454
     29 O1          1.7998  -14.7965    6.2706 O.3       1 <0>        -0.3776
     30 C22         1.9205  -14.6616    7.6887 C.3       1 <0>         0.0450
     31 C23         0.7821  -13.7854    8.2116 C.3       1 <0>         0.0833
     32 C24         0.9365   -9.9057   11.5190 C.1       1 <0>         0.2512
     33 N8          1.0317   -9.8463   12.6495 N.1       1 <0>        -0.4046
     34 H1         -2.0141    0.4648   -1.9852 H         1 <0>         0.0865
     35 H2         -0.3635    0.6718   -2.6185 H         1 <0>         0.0890
     36 H3         -1.2766   -0.8122   -2.9820 H         1 <0>         0.0838
     37 H4          1.2528   -0.7608    1.6759 H         1 <0>         0.2225
     38 H5          1.2977   -2.4363    2.8487 H         1 <0>         0.1353
     39 H6          1.3401   -4.4703    4.2321 H         1 <0>         0.1464
     40 H7         -1.3344   -6.3842    1.4981 H         1 <0>         0.1370
     41 H8         -1.3843   -4.3460    0.1210 H         1 <0>         0.1424
     42 H9         -0.0373   -7.5846    3.3198 H         1 <0>         0.4258
     43 H10         0.2106   -4.2938    7.4409 H         1 <0>         0.1756
     44 H11         0.4706   -6.3187    8.8531 H         1 <0>         0.1519
     45 H12         0.6503   -7.8534    9.8354 H         1 <0>         0.1387
     46 H13         0.9569  -12.1252   10.0342 H         1 <0>         0.1372
     47 H14         0.4847  -10.1925    6.2519 H         1 <0>         0.1448
     48 H15        -0.1800  -13.0394    5.6185 H         1 <0>         0.0754
     49 H16         0.9265  -11.6442    5.5353 H         1 <0>         0.0955
     50 H17         1.8554  -13.7600    4.4830 H         1 <0>         0.1071
     51 H18         2.8688  -13.0945    5.7874 H         1 <0>         0.0572
     52 H19         1.8671  -15.6459    8.1539 H         1 <0>         0.1074
     53 H20         2.8757  -14.1953    7.9301 H         1 <0>         0.0571
     54 H21         0.9479  -13.5602    9.2651 H         1 <0>         0.0937
     55 H22        -0.1658  -14.3103    8.0926 H         1 <0>         0.0763
@<TRIPOS>BOND
     1    1    2 1
     2    1   34 1
     3    1   35 1
     4    1   36 1
     5    2    6 2
     6    2    3 1
     7    3    4 2
     8    4    5 1
     9    4   37 1
    10    5    6 1
    11    5    7 1
    12    7   12 ar
    13    7    8 ar
    14    8    9 ar
    15    8   38 1
    16    9   10 ar
    17    9   39 1
    18   10   11 ar
    19   10   13 1
    20   11   12 ar
    21   11   40 1
    22   12   41 1
    23   13   14 1
    24   13   42 1
    25   14   19 ar
    26   14   15 ar
    27   15   16 ar
    28   16   17 ar
    29   16   43 1
    30   17   18 ar
    31   17   44 1
    32   18   19 ar
    33   18   20 1
    34   20   25 ar
    35   20   21 ar
    36   21   22 ar
    37   21   45 1
    38   22   23 ar
    39   22   32 1
    40   23   24 ar
    41   23   46 1
    42   24   25 ar
    43   24   26 1
    44   25   47 1
    45   26   31 1
    46   26   27 1
    47   27   28 1
    48   27   48 1
    49   27   49 1
    50   28   29 1
    51   28   50 1
    52   28   51 1
    53   29   30 1
    54   30   31 1
    55   30   52 1
    56   30   53 1
    57   31   54 1
    58   31   55 1
    59   32   33 3
@<TRIPOS>MOLECULE
CHEMBL507249
   49    52     0     0     0
SMALL
USER_CHARGES

@<TRIPOS>ATOM
      1 C1         -0.0169    1.3938    0.0097 C.ar      1 <0>        -0.2958
      2 C2          1.1896    2.0690    0.0018 C.ar      1 <0>         0.1977
      3 N1          2.3189    1.3778   -0.0127 N.ar      1 <0>        -0.5770
      4 C3          2.3077    0.0526   -0.0197 C.ar      1 <0>         0.5745
      5 N2          1.1755   -0.6332   -0.0130 N.ar      1 <0>        -0.5712
      6 C4          0.0021   -0.0041    0.0020 C.ar      1 <0>         0.3109
      7 C5         -1.2644   -0.7738    0.0105 C.2       1 <0>        -0.2117
      8 C6         -2.5269   -0.2521    0.0198 C.2       1 <0>         0.1036
      9 N3         -3.3933   -1.2824    0.0247 N.pl3     1 <0>        -0.4672
     10 H1         -4.3607   -1.2113    0.0313 H         1 <0>         0.4453
     11 N4         -2.6585   -2.4740    0.0183 N.2       1 <0>        -0.2909
     12 C7         -1.3864   -2.1782    0.0041 C.2       1 <0>         0.1327
     13 C8         -0.2481   -3.1657   -0.0120 C.3       1 <0>        -0.0242
     14 C9         -0.3474   -4.0380   -1.2650 C.3       1 <0>        -0.1040
     15 C10         0.8083   -5.0405   -1.2813 C.3       1 <0>        -0.1090
     16 C11         0.7328   -5.9262   -0.0360 C.3       1 <0>         0.1038
     17 C12         0.8321   -5.0538    1.2170 C.3       1 <0>        -0.1481
     18 C13        -0.3236   -4.0513    1.2333 C.3       1 <0>        -0.1042
     19 O1          1.8122   -6.8625   -0.0513 O.3       1 <0>        -0.5693
     20 N5          3.5106   -0.6319   -0.0349 N.pl3     1 <0>        -0.6927
     21 C14         4.7747    0.1086   -0.0429 C.3       1 <0>         0.1580
     22 C15         5.1891    0.4307   -1.4936 C.3       1 <0>        -0.1339
     23 C16         6.7309    0.2822   -1.4900 C.3       1 <0>        -0.1252
     24 C17         6.9550   -0.9335   -0.5568 C.3       1 <0>        -0.1246
     25 C18         5.8975   -0.7588    0.5527 C.3       1 <0>        -0.1333
     26 H2         -0.9521    1.9336    0.0260 H         1 <0>         0.1387
     27 H3          1.2108    3.1488    0.0071 H         1 <0>         0.1656
     28 H4         -2.7834    0.7970    0.0233 H         1 <0>         0.1858
     29 H5          0.6997   -2.6274   -0.0181 H         1 <0>         0.1290
     30 H6         -1.2952   -4.5763   -1.2588 H         1 <0>         0.0667
     31 H7         -0.2936   -3.4071   -2.1522 H         1 <0>         0.0673
     32 H8          0.7376   -5.6620   -2.1740 H         1 <0>         0.0698
     33 H9          1.7561   -4.5023   -1.2875 H         1 <0>         0.0711
     34 H10        -0.2150   -6.4644   -0.0299 H         1 <0>         0.0544
     35 H11         0.7783   -5.6848    2.1042 H         1 <0>         0.0647
     36 H12         1.7799   -4.5156    1.2108 H         1 <0>         0.0723
     37 H13        -0.2529   -3.4299    2.1260 H         1 <0>         0.0637
     38 H14        -1.2714   -4.5896    1.2395 H         1 <0>         0.0659
     39 H15         1.8272   -7.4580    0.7105 H         1 <0>         0.3772
     40 H16         3.5167   -1.6019   -0.0401 H         1 <0>         0.4110
     41 H17         4.6709    1.0301    0.5299 H         1 <0>         0.0948
     42 H18         4.7389   -0.2807   -2.1859 H         1 <0>         0.0676
     43 H19         4.9046    1.4502   -1.7541 H         1 <0>         0.0709
     44 H20         7.1010    0.0723   -2.4935 H         1 <0>         0.0679
     45 H21         7.2040    1.1752   -1.0815 H         1 <0>         0.0694
     46 H22         6.7900   -1.8652   -1.0978 H         1 <0>         0.0670
     47 H23         7.9593   -0.9096   -0.1337 H         1 <0>         0.0684
     48 H24         6.3392   -0.2578    1.4141 H         1 <0>         0.0755
     49 H25         5.5019   -1.7307    0.8477 H         1 <0>         0.0712
@<TRIPOS>BOND
     1    1    6 ar
     2    1    2 ar
     3    1   26 1
     4    2    3 ar
     5    2   27 1
     6    3    4 ar
     7    4    5 ar
     8    4   20 1
     9    5    6 ar
    10    6    7 1
    11    7   12 1
    12    7    8 2
    13    8    9 1
    14    8   28 1
    15    9   10 1
    16    9   11 1
    17   11   12 2
    18   12   13 1
    19   13   18 1
    20   13   14 1
    21   13   29 1
    22   14   15 1
    23   14   30 1
    24   14   31 1
    25   15   16 1
    26   15   32 1
    27   15   33 1
    28   16   17 1
    29   16   19 1
    30   16   34 1
    31   17   18 1
    32   17   35 1
    33   17   36 1
    34   18   37 1
    35   18   38 1
    36   19   39 1
    37   20   21 1
    38   20   40 1
    39   21   25 1
    40   21   22 1
    41   21   41 1
    42   22   23 1
    43   22   42 1
    44   22   43 1
    45   23   24 1
    46   23   44 1
    47   23   45 1
    48   24   25 1
    49   24   46 1
    50   24   47 1
    51   25   48 1
    52   25   49 1
@<TRIPOS>MOLECULE
CHEMBL507249__1
   49    52     0     0     0
SMALL
USER_CHARGES

@<TRIPOS>ATOM
      1 C1         -0.0169    1.3938    0.0097 C.ar      1 <0>        -0.2898
      2 C2          1.1896    2.0690    0.0018 C.ar      1 <0>         0.1971
      3 N1          2.3189    1.3778   -0.0127 N.ar      1 <0>        -0.5773
      4 C3          2.3077    0.0526   -0.0197 C.ar      1 <0>         0.5739
      5 N2          1.1755   -0.6332   -0.0130 N.ar      1 <0>        -0.5788
      6 C4          0.0021   -0.0041    0.0020 C.ar      1 <0>         0.3116
      7 C5         -1.2644   -0.7738    0.0105 C.2       1 <0>        -0.2180
      8 C6         -2.5671   -0.2354    0.0258 C.2       1 <0>         0.0868
      9 N3         -3.4155   -1.2285    0.0291 N.2       1 <0>        -0.2893
     10 H1         -3.0785   -3.3209    0.0154 H         1 <0>         0.4407
     11 N4         -2.6961   -2.4295    0.0161 N.pl3     1 <0>        -0.4670
     12 C7         -1.3827   -2.1348   -0.0011 C.2       1 <0>         0.1613
     13 C8         -0.2483   -3.1265   -0.0256 C.3       1 <0>        -0.0508
     14 C9         -0.3555   -3.9931   -1.2820 C.3       1 <0>        -0.1078
     15 C10         0.7962   -5.0000   -1.3068 C.3       1 <0>        -0.1094
     16 C11         0.7217   -5.8907   -0.0650 C.3       1 <0>         0.1037
     17 C12         0.8289   -5.0242    1.1914 C.3       1 <0>        -0.1483
     18 C13        -0.3228   -4.0173    1.2162 C.3       1 <0>        -0.1081
     19 O1          1.7974   -6.8312   -0.0882 O.3       1 <0>        -0.5674
     20 N5          3.5106   -0.6319   -0.0349 N.pl3     1 <0>        -0.6938
     21 C14         4.7747    0.1086   -0.0429 C.3       1 <0>         0.1582
     22 C15         5.1891    0.4307   -1.4936 C.3       1 <0>        -0.1338
     23 C16         6.7309    0.2822   -1.4900 C.3       1 <0>        -0.1253
     24 C17         6.9550   -0.9335   -0.5568 C.3       1 <0>        -0.1246
     25 C18         5.8975   -0.7588    0.5527 C.3       1 <0>        -0.1332
     26 H2         -0.9521    1.9336    0.0260 H         1 <0>         0.1416
     27 H3          1.2107    3.1488    0.0071 H         1 <0>         0.1662
     28 H4         -2.8196    0.8146    0.0338 H         1 <0>         0.1913
     29 H5          0.7015   -2.5920   -0.0328 H         1 <0>         0.1436
     30 H6         -1.3054   -4.5277   -1.2747 H         1 <0>         0.0590
     31 H7         -0.3025   -3.3586   -2.1666 H         1 <0>         0.0741
     32 H8          0.7198   -5.6174   -2.2018 H         1 <0>         0.0727
     33 H9          1.7461   -4.4655   -1.3140 H         1 <0>         0.0745
     34 H10        -0.2282   -6.4253   -0.0577 H         1 <0>         0.0534
     35 H11         0.7758   -5.6587    2.0760 H         1 <0>         0.0676
     36 H12         1.7788   -4.4896    1.1841 H         1 <0>         0.0757
     37 H13        -0.2465   -3.3999    2.1113 H         1 <0>         0.0707
     38 H14        -1.2727   -4.5518    1.2235 H         1 <0>         0.0582
     39 H15         1.8127   -7.4300    0.6710 H         1 <0>         0.3787
     40 H16         3.5167   -1.6019   -0.0401 H         1 <0>         0.4098
     41 H17         4.6709    1.0301    0.5299 H         1 <0>         0.0951
     42 H18         4.7389   -0.2807   -2.1859 H         1 <0>         0.0672
     43 H19         4.9046    1.4502   -1.7541 H         1 <0>         0.0712
     44 H20         7.1010    0.0723   -2.4935 H         1 <0>         0.0679
     45 H21         7.2040    1.1752   -1.0815 H         1 <0>         0.0697
     46 H22         6.7900   -1.8652   -1.0978 H         1 <0>         0.0666
     47 H23         7.9593   -0.9096   -0.1337 H         1 <0>         0.0684
     48 H24         6.3392   -0.2578    1.4141 H         1 <0>         0.0755
     49 H25         5.5019   -1.7307    0.8477 H         1 <0>         0.0705
@<TRIPOS>BOND
     1    1    6 ar
     2    1    2 ar
     3    1   26 1
     4    2    3 ar
     5    2   27 1
     6    3    4 ar
     7    4    5 ar
     8    4   20 1
     9    5    6 ar
    10    6    7 1
    11    7    8 1
    12    7   12 2
    13    8    9 2
    14    8   28 1
    15    9   11 1
    16   10   11 1
    17   11   12 1
    18   12   13 1
    19   13   18 1
    20   13   14 1
    21   13   29 1
    22   14   15 1
    23   14   30 1
    24   14   31 1
    25   15   16 1
    26   15   32 1
    27   15   33 1
    28   16   17 1
    29   16   19 1
    30   16   34 1
    31   17   18 1
    32   17   35 1
    33   17   36 1
    34   18   37 1
    35   18   38 1
    36   19   39 1
    37   20   21 1
    38   20   40 1
    39   21   25 1
    40   21   22 1
    41   21   41 1
    42   22   23 1
    43   22   42 1
    44   22   43 1
    45   23   24 1
    46   23   44 1
    47   23   45 1
    48   24   25 1
    49   24   46 1
    50   24   47 1
    51   25   48 1
    52   25   49 1
@<TRIPOS>MOLECULE
CHEMBL198687
   63    67     0     0     0
SMALL
USER_CHARGES

@<TRIPOS>ATOM
      1 C1          0.4085    0.5382    2.4237 C.ar      1 <0>        -0.0713
      2 C2          1.4707    1.4064    2.2487 C.ar      1 <0>        -0.1547
      3 C3          2.4562    1.1206    1.3218 C.ar      1 <0>        -0.0678
      4 C4          2.3824   -0.0346    0.5668 C.ar      1 <0>        -0.1007
      5 C5          1.3160   -0.9091    0.7405 C.ar      1 <0>         0.2107
      6 C6          0.3282   -0.6181    1.6727 C.ar      1 <0>        -0.1755
      7 N1          1.2375   -2.0783   -0.0214 N.pl3     1 <0>        -0.6807
      8 C7          0.0905   -2.8737    0.0359 C.ar      1 <0>         0.2094
      9 C8         -1.1696   -2.2594    0.0190 C.ar      1 <0>        -0.1701
     10 C9         -2.3150   -2.9848    0.0726 C.ar      1 <0>        -0.0203
     11 C10        -2.2480   -4.3886    0.1472 C.ar      1 <0>        -0.1964
     12 C11        -0.9301   -5.0389    0.1653 C.ar      1 <0>         0.1286
     13 C12         0.2235   -4.2294    0.1015 C.ar      1 <0>        -0.1450
     14 N2         -1.1434   -6.3416    0.2380 N.2       1 <0>        -0.2944
     15 N3         -2.5212   -6.5833    0.2686 N.pl3     1 <0>        -0.4165
     16 H1         -2.9321   -7.4603    0.3216 H         1 <0>         0.4449
     17 C13        -3.1928   -5.4143    0.2143 C.2       1 <0>         0.1574
     18 C14        -4.6596   -5.2498    0.2246 C.ar      1 <0>        -0.0491
     19 C15        -5.2497   -4.2733    1.0327 C.ar      1 <0>        -0.0596
     20 C16        -6.6212   -4.1190    1.0435 C.ar      1 <0>        -0.1194
     21 C17        -7.4198   -4.9266    0.2575 C.ar      1 <0>        -0.0720
     22 C18        -6.8440   -5.9062   -0.5546 C.ar      1 <0>        -0.1306
     23 C19        -5.4600   -6.0641   -0.5758 C.ar      1 <0>        -0.0416
     24 C20        -7.7012   -6.7698   -1.3948 C.2       1 <0>         0.5587
     25 O1         -7.1987   -7.6219   -2.1012 O.2       1 <0>        -0.5314
     26 N4         -9.0396   -6.6121   -1.3775 N.am      1 <0>        -0.7247
     27 C21        -9.8888   -7.4677   -2.2099 C.3       1 <0>         0.1198
     28 C22       -11.3557   -7.0843   -2.0051 C.3       1 <0>        -0.1290
     29 C23       -12.2427   -7.9778   -2.8744 C.3       1 <0>         0.0578
     30 N5        -13.6511   -7.6097   -2.6777 N.3       1 <0>        -0.5372
     31 C24       -14.0901   -7.9181   -1.3090 C.3       1 <0>         0.0132
     32 C25       -15.5415   -7.4650   -1.1300 C.3       1 <0>         0.0625
     33 O2        -16.3590   -8.1000   -2.1168 O.3       1 <0>        -0.3850
     34 C26       -15.9600   -7.8207   -3.4614 C.3       1 <0>         0.0628
     35 C27       -14.5129   -8.2774   -3.6640 C.3       1 <0>         0.0168
     36 Cl1         3.6196   -0.3927   -0.5972 Cl        1 <0>        -0.0696
     37 H2         -0.3571    0.7625    3.1517 H         1 <0>         0.1305
     38 H3          1.5304    2.3100    2.8372 H         1 <0>         0.1306
     39 H4          3.2841    1.8010    1.1875 H         1 <0>         0.1346
     40 H5         -0.5015   -1.2956    1.8105 H         1 <0>         0.1417
     41 H6          1.9794   -2.3373   -0.5901 H         1 <0>         0.4139
     42 H7         -1.2301   -1.1826   -0.0377 H         1 <0>         0.1328
     43 H8         -3.2735   -2.4874    0.0584 H         1 <0>         0.1295
     44 H9          1.2050   -4.6798    0.1088 H         1 <0>         0.1328
     45 H10        -4.6311   -3.6388    1.6500 H         1 <0>         0.1382
     46 H11        -7.0721   -3.3634    1.6697 H         1 <0>         0.1403
     47 H12        -8.4923   -4.8005    0.2712 H         1 <0>         0.1314
     48 H13        -5.0094   -6.8168   -1.2057 H         1 <0>         0.1390
     49 H14        -9.4405   -5.9321   -0.8138 H         1 <0>         0.4012
     50 H15        -9.6216   -7.3350   -3.2583 H         1 <0>         0.0728
     51 H16        -9.7428   -8.5101   -1.9268 H         1 <0>         0.0703
     52 H17       -11.6229   -7.2169   -0.9567 H         1 <0>         0.0710
     53 H18       -11.5017   -6.0418   -2.2881 H         1 <0>         0.0812
     54 H19       -11.9754   -7.8452   -3.9228 H         1 <0>         0.0817
     55 H20       -12.0966   -9.0203   -2.5913 H         1 <0>         0.0406
     56 H21       -14.0204   -8.9923   -1.1377 H         1 <0>         0.0443
     57 H22       -13.4543   -7.3932   -0.5959 H         1 <0>         0.0883
     58 H23       -15.8895   -7.7431   -0.1352 H         1 <0>         0.0988
     59 H24       -15.6022   -6.3831   -1.2483 H         1 <0>         0.0605
     60 H25       -16.6108   -8.3560   -4.1528 H         1 <0>         0.0998
     61 H26       -16.0330   -6.7491   -3.6476 H         1 <0>         0.0609
     62 H27       -14.1858   -8.0148   -4.6701 H         1 <0>         0.0883
     63 H28       -14.4500   -9.3573   -3.5305 H         1 <0>         0.0448
@<TRIPOS>BOND
     1    1    6 ar
     2    1    2 ar
     3    1   37 1
     4    2    3 ar
     5    2   38 1
     6    3    4 ar
     7    3   39 1
     8    4    5 ar
     9    4   36 1
    10    5    6 ar
    11    5    7 1
    12    6   40 1
    13    7    8 1
    14    7   41 1
    15    8   13 ar
    16    8    9 ar
    17    9   10 ar
    18    9   42 1
    19   10   11 ar
    20   10   43 1
    21   11   17 2
    22   11   12 ar
    23   12   13 ar
    24   12   14 2
    25   13   44 1
    26   14   15 1
    27   15   16 1
    28   15   17 1
    29   17   18 1
    30   18   23 ar
    31   18   19 ar
    32   19   20 ar
    33   19   45 1
    34   20   21 ar
    35   20   46 1
    36   21   22 ar
    37   21   47 1
    38   22   23 ar
    39   22   24 1
    40   23   48 1
    41   24   25 2
    42   24   26 am
    43   26   27 1
    44   26   49 1
    45   27   28 1
    46   27   50 1
    47   27   51 1
    48   28   29 1
    49   28   52 1
    50   28   53 1
    51   29   30 1
    52   29   54 1
    53   29   55 1
    54   30   35 1
    55   30   31 1
    56   31   32 1
    57   31   56 1
    58   31   57 1
    59   32   33 1
    60   32   58 1
    61   32   59 1
    62   33   34 1
    63   34   35 1
    64   34   60 1
    65   34   61 1
    66   35   62 1
    67   35   63 1
@<TRIPOS>MOLECULE
CHEMBL198687__1
   64    68     0     0     0
SMALL
USER_CHARGES

@<TRIPOS>ATOM
      1 C1          0.3982    0.5513    2.4052 C.ar      1 <0>        -0.0716
      2 C2          1.4613    1.4184    2.2303 C.ar      1 <0>        -0.1501
      3 C3          2.4510    1.1274    1.3095 C.ar      1 <0>        -0.0673
      4 C4          2.3803   -0.0318    0.5602 C.ar      1 <0>        -0.0977
      5 C5          1.3129   -0.9052    0.7338 C.ar      1 <0>         0.2052
      6 C6          0.3212   -0.6091    1.6602 C.ar      1 <0>        -0.1756
      7 N1          1.2375   -2.0783   -0.0224 N.pl3     1 <0>        -0.6800
      8 C7          0.0906   -2.8737    0.0350 C.ar      1 <0>         0.2223
      9 C8         -1.1702   -2.2742    0.0191 C.ar      1 <0>        -0.1778
     10 C9         -2.2999   -3.0359    0.0740 C.ar      1 <0>        -0.0191
     11 C10        -2.1990   -4.4281    0.1467 C.ar      1 <0>        -0.1823
     12 C11        -0.9322   -5.0404    0.1631 C.ar      1 <0>         0.1589
     13 C12         0.2120   -4.2498    0.1012 C.ar      1 <0>        -0.1787
     14 N2         -1.1437   -6.3937    0.2378 N.pl3     1 <0>        -0.5003
     15 N3         -2.5191   -6.6447    0.2686 N.2       1 <0>        -0.2309
     16 H1         -0.4489   -7.0699    0.2646 H         1 <0>         0.4450
     17 C13        -3.1817   -5.5149    0.2170 C.2       1 <0>         0.1341
     18 C14        -4.6563   -5.3631    0.2277 C.ar      1 <0>        -0.0155
     19 C15        -5.2416   -4.2690    0.8660 C.ar      1 <0>        -0.0626
     20 C16        -6.6151   -4.1257    0.8777 C.ar      1 <0>        -0.1217
     21 C17        -7.4182   -5.0628    0.2586 C.ar      1 <0>        -0.0781
     22 C18        -6.8449   -6.1618   -0.3840 C.ar      1 <0>        -0.1429
     23 C19        -5.4589   -6.3083   -0.4037 C.ar      1 <0>        -0.0268
     24 C20        -7.7057   -7.1652   -1.0463 C.2       1 <0>         0.5666
     25 O1         -7.2050   -8.1214   -1.6052 O.2       1 <0>        -0.5213
     26 N4         -9.0455   -7.0195   -1.0302 N.am      1 <0>        -0.7350
     27 C21        -9.8983   -8.0137   -1.6864 C.3       1 <0>         0.1243
     28 C22       -11.3661   -7.6146   -1.5219 C.3       1 <0>        -0.1636
     29 C23       -12.2568   -8.6528   -2.2072 C.3       1 <0>        -0.0056
     30 N5        -13.6662   -8.2696   -2.0493 N.4       1 <0>        -0.3850
     31 C24       -14.0321   -8.3230   -0.6272 C.3       1 <0>        -0.0492
     32 C25       -15.5007   -7.9232   -0.4653 C.3       1 <0>         0.0362
     33 O2        -16.3166   -8.7967   -1.2509 O.3       1 <0>        -0.3562
     34 C26       -15.9824   -8.7978   -2.6416 C.3       1 <0>         0.0356
     35 C27       -14.5146   -9.1993   -2.8075 C.3       1 <0>        -0.0436
     36 Cl1         3.6224   -0.3962   -0.5966 Cl        1 <0>        -0.0670
     37 H2         -0.3706    0.7797    3.1285 H         1 <0>         0.1318
     38 H3          1.5185    2.3252    2.8141 H         1 <0>         0.1327
     39 H4          3.2798    1.8067    1.1755 H         1 <0>         0.1367
     40 H5         -0.5093   -1.2857    1.7979 H         1 <0>         0.1410
     41 H6          1.9815   -2.3401   -0.5870 H         1 <0>         0.4150
     42 H7         -1.2513   -1.1987   -0.0366 H         1 <0>         0.1381
     43 H8         -3.2713   -2.5640    0.0616 H         1 <0>         0.1332
     44 H9          1.1897   -4.7085    0.1090 H         1 <0>         0.1330
     45 H10        -4.6190   -3.5327    1.3524 H         1 <0>         0.1381
     46 H11        -7.0629   -3.2772    1.3735 H         1 <0>         0.1391
     47 H12        -8.4918   -4.9456    0.2718 H         1 <0>         0.1254
     48 H13        -5.0100   -7.1541   -0.9031 H         1 <0>         0.1433
     49 H14        -9.4450   -6.2565   -0.5841 H         1 <0>         0.4026
     50 H15        -9.6513   -8.0609   -2.7470 H         1 <0>         0.0808
     51 H16        -9.7342   -8.9904   -1.2312 H         1 <0>         0.0805
     52 H17       -11.6132   -7.5673   -0.4613 H         1 <0>         0.0952
     53 H18       -11.5303   -6.6378   -1.9771 H         1 <0>         0.0962
     54 H19       -12.0098   -8.7001   -3.2678 H         1 <0>         0.1385
     55 H20       -12.0927   -9.6295   -1.7521 H         1 <0>         0.1363
     56 H21       -13.8877   -9.3363   -0.2524 H         1 <0>         0.1406
     57 H22       -13.4033   -7.6336   -0.0638 H         1 <0>         0.1429
     58 H23       -15.7864   -8.0036    0.5835 H         1 <0>         0.1422
     59 H24       -15.6376   -6.8958   -0.8028 H         1 <0>         0.0814
     60 H25       -16.6166   -9.5112   -3.1678 H         1 <0>         0.1429
     61 H26       -16.1357   -7.8003   -3.0536 H         1 <0>         0.0816
     62 H27       -14.2441   -9.1603   -3.8627 H         1 <0>         0.1441
     63 H28       -14.3700  -10.2122   -2.4320 H         1 <0>         0.1403
     64 H29       -13.8008   -7.3318   -2.3965 H         1 <0>         0.4234
@<TRIPOS>BOND
     1    1    6 ar
     2    1    2 ar
     3    1   37 1
     4    2    3 ar
     5    2   38 1
     6    3    4 ar
     7    3   39 1
     8    4    5 ar
     9    4   36 1
    10    5    6 ar
    11    5    7 1
    12    6   40 1
    13    7    8 1
    14    7   41 1
    15    8   13 ar
    16    8    9 ar
    17    9   10 ar
    18    9   42 1
    19   10   11 ar
    20   10   43 1
    21   11   17 1
    22   11   12 ar
    23   12   13 ar
    24   12   14 1
    25   13   44 1
    26   14   16 1
    27   14   15 1
    28   15   17 2
    29   17   18 1
    30   18   23 ar
    31   18   19 ar
    32   19   20 ar
    33   19   45 1
    34   20   21 ar
    35   20   46 1
    36   21   22 ar
    37   21   47 1
    38   22   23 ar
    39   22   24 1
    40   23   48 1
    41   24   25 2
    42   24   26 am
    43   26   27 1
    44   26   49 1
    45   27   28 1
    46   27   50 1
    47   27   51 1
    48   28   29 1
    49   28   52 1
    50   28   53 1
    51   29   30 1
    52   29   54 1
    53   29   55 1
    54   30   35 1
    55   30   31 1
    56   30   64 1
    57   31   32 1
    58   31   56 1
    59   31   57 1
    60   32   33 1
    61   32   58 1
    62   32   59 1
    63   33   34 1
    64   34   35 1
    65   34   60 1
    66   34   61 1
    67   35   62 1
    68   35   63 1
@<TRIPOS>MOLECULE
CHEMBL198687__2
   64    68     0     0     0
SMALL
USER_CHARGES

@<TRIPOS>ATOM
      1 C1          0.4085    0.5382    2.4237 C.ar      1 <0>        -0.0718
      2 C2          1.4707    1.4064    2.2487 C.ar      1 <0>        -0.1526
      3 C3          2.4562    1.1206    1.3218 C.ar      1 <0>        -0.0670
      4 C4          2.3824   -0.0346    0.5668 C.ar      1 <0>        -0.0992
      5 C5          1.3160   -0.9091    0.7405 C.ar      1 <0>         0.2084
      6 C6          0.3282   -0.6181    1.6727 C.ar      1 <0>        -0.1760
      7 N1          1.2375   -2.0783   -0.0214 N.pl3     1 <0>        -0.6810
      8 C7          0.0905   -2.8737    0.0359 C.ar      1 <0>         0.2109
      9 C8         -1.1696   -2.2594    0.0190 C.ar      1 <0>        -0.1631
     10 C9         -2.3150   -2.9848    0.0726 C.ar      1 <0>        -0.0271
     11 C10        -2.2480   -4.3886    0.1472 C.ar      1 <0>        -0.1912
     12 C11        -0.9301   -5.0389    0.1653 C.ar      1 <0>         0.1290
     13 C12         0.2235   -4.2294    0.1015 C.ar      1 <0>        -0.1443
     14 N2         -1.1434   -6.3416    0.2380 N.2       1 <0>        -0.2891
     15 N3         -2.5212   -6.5833    0.2686 N.pl3     1 <0>        -0.4165
     16 H1         -2.9321   -7.4603    0.3216 H         1 <0>         0.4442
     17 C13        -3.1928   -5.4143    0.2143 C.2       1 <0>         0.1450
     18 C14        -4.6596   -5.2498    0.2246 C.ar      1 <0>        -0.0397
     19 C15        -5.2497   -4.2733    1.0327 C.ar      1 <0>        -0.0550
     20 C16        -6.6212   -4.1190    1.0435 C.ar      1 <0>        -0.1183
     21 C17        -7.4198   -4.9266    0.2575 C.ar      1 <0>        -0.0750
     22 C18        -6.8440   -5.9062   -0.5546 C.ar      1 <0>        -0.1385
     23 C19        -5.4600   -6.0641   -0.5758 C.ar      1 <0>        -0.0407
     24 C20        -7.7012   -6.7698   -1.3948 C.2       1 <0>         0.5661
     25 O1         -7.1987   -7.6219   -2.1012 O.2       1 <0>        -0.5220
     26 N4         -9.0396   -6.6121   -1.3775 N.am      1 <0>        -0.7335
     27 C21        -9.8888   -7.4677   -2.2099 C.3       1 <0>         0.1240
     28 C22       -11.3557   -7.0843   -2.0051 C.3       1 <0>        -0.1639
     29 C23       -12.2427   -7.9778   -2.8744 C.3       1 <0>        -0.0056
     30 N5        -13.6511   -7.6097   -2.6777 N.4       1 <0>        -0.3850
     31 C24       -14.0452   -7.9022   -1.2927 C.3       1 <0>        -0.0492
     32 C25       -15.5129   -7.5175   -1.0902 C.3       1 <0>         0.0362
     33 O2        -16.3215   -8.2326   -2.0287 O.3       1 <0>        -0.3560
     34 C26       -15.9602   -7.9988   -3.3927 C.3       1 <0>         0.0356
     35 C27       -14.4934   -8.3843   -3.5995 C.3       1 <0>        -0.0436
     36 Cl1         3.6196   -0.3927   -0.5972 Cl        1 <0>        -0.0675
     37 H2         -0.3571    0.7625    3.1517 H         1 <0>         0.1306
     38 H3          1.5304    2.3100    2.8372 H         1 <0>         0.1317
     39 H4          3.2841    1.8010    1.1875 H         1 <0>         0.1359
     40 H5         -0.5015   -1.2956    1.8105 H         1 <0>         0.1403
     41 H6          1.9794   -2.3373   -0.5901 H         1 <0>         0.4147
     42 H7         -1.2301   -1.1826   -0.0377 H         1 <0>         0.1341
     43 H8         -3.2735   -2.4874    0.0584 H         1 <0>         0.1286
     44 H9          1.2050   -4.6798    0.1088 H         1 <0>         0.1346
     45 H10        -4.6311   -3.6388    1.6500 H         1 <0>         0.1412
     46 H11        -7.0721   -3.3634    1.6697 H         1 <0>         0.1415
     47 H12        -8.4923   -4.8005    0.2712 H         1 <0>         0.1274
     48 H13        -5.0094   -6.8168   -1.2057 H         1 <0>         0.1400
     49 H14        -9.4405   -5.9321   -0.8138 H         1 <0>         0.4031
     50 H15        -9.6216   -7.3350   -3.2583 H         1 <0>         0.0815
     51 H16        -9.7428   -8.5101   -1.9268 H         1 <0>         0.0811
     52 H17       -11.6229   -7.2169   -0.9567 H         1 <0>         0.0954
     53 H18       -11.5017   -6.0418   -2.2881 H         1 <0>         0.0965
     54 H19       -11.9754   -7.8452   -3.9228 H         1 <0>         0.1387
     55 H20       -12.0966   -9.0203   -2.5913 H         1 <0>         0.1364
     56 H21       -13.9177   -8.9666   -1.0955 H         1 <0>         0.1406
     57 H22       -13.4210   -7.3279   -0.6081 H         1 <0>         0.1425
     58 H23       -15.8197   -7.7734   -0.0761 H         1 <0>         0.1423
     59 H24       -15.6334   -6.4458   -1.2482 H         1 <0>         0.0815
     60 H25       -16.5908   -8.6030   -4.0450 H         1 <0>         0.1432
     61 H26       -16.0961   -6.9435   -3.6295 H         1 <0>         0.0818
     62 H27       -14.2019   -8.1680   -4.6272 H         1 <0>         0.1443
     63 H28       -14.3657   -9.4486   -3.4014 H         1 <0>         0.1404
     64 H29       -13.7701   -6.6245   -2.8606 H         1 <0>         0.4235
@<TRIPOS>BOND
     1    1    6 ar
     2    1    2 ar
     3    1   37 1
     4    2    3 ar
     5    2   38 1
     6    3    4 ar
     7    3   39 1
     8    4    5 ar
     9    4   36 1
    10    5    6 ar
    11    5    7 1
    12    6   40 1
    13    7    8 1
    14    7   41 1
    15    8   13 ar
    16    8    9 ar
    17    9   10 ar
    18    9   42 1
    19   10   11 ar
    20   10   43 1
    21   11   17 2
    22   11   12 ar
    23   12   13 ar
    24   12   14 2
    25   13   44 1
    26   14   15 1
    27   15   16 1
    28   15   17 1
    29   17   18 1
    30   18   23 ar
    31   18   19 ar
    32   19   20 ar
    33   19   45 1
    34   20   21 ar
    35   20   46 1
    36   21   22 ar
    37   21   47 1
    38   22   23 ar
    39   22   24 1
    40   23   48 1
    41   24   25 2
    42   24   26 am
    43   26   27 1
    44   26   49 1
    45   27   28 1
    46   27   50 1
    47   27   51 1
    48   28   29 1
    49   28   52 1
    50   28   53 1
    51   29   30 1
    52   29   54 1
    53   29   55 1
    54   30   35 1
    55   30   31 1
    56   30   64 1
    57   31   32 1
    58   31   56 1
    59   31   57 1
    60   32   33 1
    61   32   58 1
    62   32   59 1
    63   33   34 1
    64   34   35 1
    65   34   60 1
    66   34   61 1
    67   35   62 1
    68   35   63 1
@<TRIPOS>MOLECULE
CHEMBL198687__3
   63    67     0     0     0
SMALL
USER_CHARGES

@<TRIPOS>ATOM
      1 C1          0.3982    0.5513    2.4052 C.ar      1 <0>        -0.0709
      2 C2          1.4613    1.4184    2.2303 C.ar      1 <0>        -0.1523
      3 C3          2.4510    1.1274    1.3095 C.ar      1 <0>        -0.0680
      4 C4          2.3803   -0.0318    0.5602 C.ar      1 <0>        -0.0992
      5 C5          1.3129   -0.9052    0.7338 C.ar      1 <0>         0.2076
      6 C6          0.3212   -0.6091    1.6602 C.ar      1 <0>        -0.1753
      7 N1          1.2375   -2.0783   -0.0224 N.pl3     1 <0>        -0.6797
      8 C7          0.0906   -2.8737    0.0350 C.ar      1 <0>         0.2187
      9 C8         -1.1702   -2.2742    0.0191 C.ar      1 <0>        -0.1806
     10 C9         -2.2999   -3.0359    0.0740 C.ar      1 <0>        -0.0163
     11 C10        -2.1990   -4.4281    0.1467 C.ar      1 <0>        -0.1809
     12 C11        -0.9322   -5.0404    0.1631 C.ar      1 <0>         0.1579
     13 C12         0.2120   -4.2498    0.1012 C.ar      1 <0>        -0.1789
     14 N2         -1.1437   -6.3937    0.2378 N.pl3     1 <0>        -0.5026
     15 N3         -2.5191   -6.6447    0.2686 N.2       1 <0>        -0.2321
     16 H1         -0.4489   -7.0699    0.2646 H         1 <0>         0.4437
     17 C13        -3.1817   -5.5149    0.2170 C.2       1 <0>         0.1421
     18 C14        -4.6563   -5.3631    0.2277 C.ar      1 <0>        -0.0239
     19 C15        -5.2416   -4.2690    0.8660 C.ar      1 <0>        -0.0677
     20 C16        -6.6151   -4.1257    0.8777 C.ar      1 <0>        -0.1227
     21 C17        -7.4182   -5.0628    0.2586 C.ar      1 <0>        -0.0755
     22 C18        -6.8449   -6.1618   -0.3840 C.ar      1 <0>        -0.1350
     23 C19        -5.4589   -6.3083   -0.4037 C.ar      1 <0>        -0.0280
     24 C20        -7.7057   -7.1652   -1.0463 C.2       1 <0>         0.5595
     25 O1         -7.2050   -8.1214   -1.6052 O.2       1 <0>        -0.5306
     26 N4         -9.0455   -7.0195   -1.0302 N.am      1 <0>        -0.7264
     27 C21        -9.8983   -8.0137   -1.6864 C.3       1 <0>         0.1202
     28 C22       -11.3661   -7.6146   -1.5219 C.3       1 <0>        -0.1287
     29 C23       -12.2568   -8.6528   -2.2072 C.3       1 <0>         0.0577
     30 N5        -13.6662   -8.2696   -2.0493 N.3       1 <0>        -0.5372
     31 C24       -14.0770   -8.3419   -0.6396 C.3       1 <0>         0.0132
     32 C25       -15.5307   -7.8785   -0.5129 C.3       1 <0>         0.0626
     33 O2        -16.3573   -8.6816   -1.3597 O.3       1 <0>        -0.3853
     34 C26       -15.9857   -8.6341   -2.7399 C.3       1 <0>         0.0629
     35 C27       -14.5366   -9.1052   -2.8892 C.3       1 <0>         0.0168
     36 Cl1         3.6224   -0.3962   -0.5966 Cl        1 <0>        -0.0690
     37 H2         -0.3706    0.7797    3.1285 H         1 <0>         0.1317
     38 H3          1.5185    2.3252    2.8141 H         1 <0>         0.1317
     39 H4          3.2798    1.8067    1.1755 H         1 <0>         0.1354
     40 H5         -0.5093   -1.2857    1.7979 H         1 <0>         0.1422
     41 H6          1.9815   -2.3401   -0.5870 H         1 <0>         0.4142
     42 H7         -1.2513   -1.1987   -0.0366 H         1 <0>         0.1370
     43 H8         -3.2713   -2.5640    0.0616 H         1 <0>         0.1345
     44 H9          1.1897   -4.7085    0.1090 H         1 <0>         0.1315
     45 H10        -4.6190   -3.5327    1.3524 H         1 <0>         0.1349
     46 H11        -7.0629   -3.2772    1.3735 H         1 <0>         0.1378
     47 H12        -8.4918   -4.9456    0.2718 H         1 <0>         0.1293
     48 H13        -5.0100   -7.1541   -0.9031 H         1 <0>         0.1423
     49 H14        -9.4450   -6.2565   -0.5841 H         1 <0>         0.4008
     50 H15        -9.6513   -8.0609   -2.7470 H         1 <0>         0.0720
     51 H16        -9.7342   -8.9904   -1.2312 H         1 <0>         0.0696
     52 H17       -11.6132   -7.5673   -0.4613 H         1 <0>         0.0708
     53 H18       -11.5303   -6.6378   -1.9771 H         1 <0>         0.0809
     54 H19       -12.0098   -8.7001   -3.2678 H         1 <0>         0.0816
     55 H20       -12.0927   -9.6295   -1.7521 H         1 <0>         0.0406
     56 H21       -13.9907   -9.3699   -0.2876 H         1 <0>         0.0443
     57 H22       -13.4356   -7.6962   -0.0399 H         1 <0>         0.0886
     58 H23       -15.8576   -7.9845    0.5215 H         1 <0>         0.0987
     59 H24       -15.6072   -6.8338   -0.8143 H         1 <0>         0.0604
     60 H25       -16.6417   -9.2866   -3.3161 H         1 <0>         0.0995
     61 H26       -16.0754   -7.6114   -3.1060 H         1 <0>         0.0608
     62 H27       -14.2306   -9.0166   -3.9316 H         1 <0>         0.0882
     63 H28       -14.4577  -10.1454   -2.5731 H         1 <0>         0.0446
@<TRIPOS>BOND
     1    1    6 ar
     2    1    2 ar
     3    1   37 1
     4    2    3 ar
     5    2   38 1
     6    3    4 ar
     7    3   39 1
     8    4    5 ar
     9    4   36 1
    10    5    6 ar
    11    5    7 1
    12    6   40 1
    13    7    8 1
    14    7   41 1
    15    8   13 ar
    16    8    9 ar
    17    9   10 ar
    18    9   42 1
    19   10   11 ar
    20   10   43 1
    21   11   17 1
    22   11   12 ar
    23   12   13 ar
    24   12   14 1
    25   13   44 1
    26   14   16 1
    27   14   15 1
    28   15   17 2
    29   17   18 1
    30   18   23 ar
    31   18   19 ar
    32   19   20 ar
    33   19   45 1
    34   20   21 ar
    35   20   46 1
    36   21   22 ar
    37   21   47 1
    38   22   23 ar
    39   22   24 1
    40   23   48 1
    41   24   25 2
    42   24   26 am
    43   26   27 1
    44   26   49 1
    45   27   28 1
    46   27   50 1
    47   27   51 1
    48   28   29 1
    49   28   52 1
    50   28   53 1
    51   29   30 1
    52   29   54 1
    53   29   55 1
    54   30   35 1
    55   30   31 1
    56   31   32 1
    57   31   56 1
    58   31   57 1
    59   32   33 1
    60   32   58 1
    61   32   59 1
    62   33   34 1
    63   34   35 1
    64   34   60 1
    65   34   61 1
    66   35   62 1
    67   35   63 1
@<TRIPOS>MOLECULE
CHEMBL254651
   42    45     0     0     0
SMALL
USER_CHARGES

@<TRIPOS>ATOM
      1 C1         -0.0164    1.3570    0.0095 C.ar      1 <0>        -0.1086
      2 C2          1.1559    2.1003    0.0023 C.ar      1 <0>        -0.0820
      3 C3          2.3751    1.4492   -0.0129 C.ar      1 <0>        -0.0683
      4 C4          2.4044    0.0758   -0.0205 C.ar      1 <0>        -0.1562
      5 C5          1.2262   -0.7047   -0.0135 C.ar      1 <0>         0.0721
      6 C6          0.0021   -0.0041    0.0020 C.ar      1 <0>        -0.0495
      7 N1          1.4635   -2.0326   -0.0233 N.2       1 <0>        -0.4763
      8 C7          2.6693   -2.5212   -0.0378 C.2       1 <0>         0.0804
      9 S1          3.6694   -1.1675   -0.0399 S.3       1 <0>         0.1130
     10 C8          3.0782   -3.9717   -0.0496 C.3       1 <0>         0.1574
     11 C9          3.8910   -4.2620    1.1428 C.1       1 <0>         0.1981
     12 N2          4.5183   -4.4861    2.0630 N.1       1 <0>        -0.3659
     13 C10         3.8860   -4.2558   -1.2896 C.ar      1 <0>         0.2263
     14 C11         5.2515   -4.0173   -1.3072 C.ar      1 <0>        -0.2637
     15 C12         5.9572   -4.2928   -2.4677 C.ar      1 <0>         0.2073
     16 N3          5.3109   -4.7722   -3.5176 N.ar      1 <0>        -0.5609
     17 C13         4.0049   -4.9889   -3.4680 C.ar      1 <0>         0.5696
     18 N4          3.3018   -4.7409   -2.3725 N.ar      1 <0>        -0.5445
     19 N5          3.3603   -5.4907   -4.5852 N.pl3     1 <0>        -0.7029
     20 C14         4.1218   -5.7758   -5.8039 C.3       1 <0>         0.1420
     21 C15         3.1783   -6.3170   -6.8799 C.3       1 <0>        -0.0783
     22 C16         3.9617   -6.6102   -8.1335 C.2       1 <0>         0.0352
     23 C17         4.2764   -5.7224   -9.0959 C.2       1 <0>         0.0420
     24 N6          4.9890   -6.4036  -10.0455 N.pl3     1 <0>        -0.5090
     25 H1          5.3565   -6.0348  -10.8640 H         1 <0>         0.4690
     26 C18         5.0850   -7.6850   -9.6301 C.cat     1 <0>         0.3103
     27 N7          4.4725   -7.8000   -8.4835 N.pl3     1 <0>        -0.4738
     28 H2         -0.9661    1.8710    0.0259 H         1 <0>         0.1402
     29 H3          1.1157    3.1795    0.0081 H         1 <0>         0.1441
     30 H4          3.2953    2.0145   -0.0190 H         1 <0>         0.1388
     31 H5         -0.9285   -0.5522    0.0083 H         1 <0>         0.1380
     32 H6          2.1877   -4.6002   -0.0441 H         1 <0>         0.1699
     33 H7          5.7544   -3.6251   -0.4356 H         1 <0>         0.1493
     34 H8          7.0219   -4.1179   -2.5143 H         1 <0>         0.1793
     35 H9          2.4044   -5.6537   -4.5614 H         1 <0>         0.4195
     36 H10         4.5927   -4.8598   -6.1607 H         1 <0>         0.0785
     37 H11         4.8897   -6.5184   -5.5871 H         1 <0>         0.0718
     38 H12         2.7075   -7.2330   -6.5231 H         1 <0>         0.1053
     39 H13         2.4104   -5.5744   -7.0967 H         1 <0>         0.1210
     40 H14         4.0163   -4.6743   -9.1149 H         1 <0>         0.2281
     41 H15         5.5887   -8.4816  -10.1574 H         1 <0>         0.2677
     42 H16         4.3971   -8.6174   -7.9667 H         1 <0>         0.4657
@<TRIPOS>BOND
     1    1    6 ar
     2    1    2 ar
     3    1   28 1
     4    2    3 ar
     5    2   29 1
     6    3    4 ar
     7    3   30 1
     8    4    9 1
     9    4    5 ar
    10    5    6 ar
    11    5    7 1
    12    6   31 1
    13    7    8 2
    14    8    9 1
    15    8   10 1
    16   10   11 1
    17   10   13 1
    18   10   32 1
    19   11   12 3
    20   13   18 ar
    21   13   14 ar
    22   14   15 ar
    23   14   33 1
    24   15   16 ar
    25   15   34 1
    26   16   17 ar
    27   17   18 ar
    28   17   19 1
    29   19   20 1
    30   19   35 1
    31   20   21 1
    32   20   36 1
    33   20   37 1
    34   21   22 1
    35   21   38 1
    36   21   39 1
    37   22   27 1
    38   22   23 2
    39   23   24 1
    40   23   40 1
    41   24   25 1
    42   24   26 1
    43   26   27 2
    44   26   41 1
    45   27   42 1
@<TRIPOS>MOLECULE
CHEMBL254651__1
   41    44     0     0     0
SMALL
USER_CHARGES

@<TRIPOS>ATOM
      1 C1         -0.0164    1.3570    0.0095 C.ar      1 <0>        -0.1097
      2 C2          1.1559    2.1003    0.0023 C.ar      1 <0>        -0.0863
      3 C3          2.3751    1.4492   -0.0129 C.ar      1 <0>        -0.0669
      4 C4          2.4044    0.0758   -0.0205 C.ar      1 <0>        -0.1596
      5 C5          1.2262   -0.7047   -0.0135 C.ar      1 <0>         0.0748
      6 C6          0.0021   -0.0041    0.0020 C.ar      1 <0>        -0.0508
      7 N1          1.4635   -2.0326   -0.0233 N.2       1 <0>        -0.4799
      8 C7          2.6693   -2.5212   -0.0378 C.2       1 <0>         0.0880
      9 S1          3.6694   -1.1675   -0.0399 S.3       1 <0>         0.1164
     10 C8          3.0782   -3.9717   -0.0496 C.3       1 <0>         0.1566
     11 C9          3.8910   -4.2620    1.1428 C.1       1 <0>         0.2039
     12 N2          4.5183   -4.4861    2.0630 N.1       1 <0>        -0.3729
     13 C10         3.8860   -4.2558   -1.2896 C.ar      1 <0>         0.2209
     14 C11         5.2515   -4.0173   -1.3072 C.ar      1 <0>        -0.2754
     15 C12         5.9572   -4.2928   -2.4677 C.ar      1 <0>         0.2083
     16 N3          5.3109   -4.7722   -3.5176 N.ar      1 <0>        -0.5559
     17 C13         4.0049   -4.9889   -3.4680 C.ar      1 <0>         0.5740
     18 N4          3.3018   -4.7409   -2.3725 N.ar      1 <0>        -0.5497
     19 N5          3.3603   -5.4907   -4.5852 N.pl3     1 <0>        -0.6963
     20 C14         4.1218   -5.7758   -5.8039 C.3       1 <0>         0.1421
     21 C15         3.1783   -6.3170   -6.8799 C.3       1 <0>        -0.0552
     22 C16         3.9617   -6.6102   -8.1335 C.2       1 <0>        -0.0268
     23 C17         4.6373   -7.7415   -8.4117 C.2       1 <0>        -0.0126
     24 N6          5.1954   -7.6040   -9.6236 N.2       1 <0>        -0.4933
     25 H1          3.7458   -4.8903   -9.3105 H         1 <0>         0.4198
     26 C18         4.8914   -6.4306  -10.1069 C.2       1 <0>         0.1901
     27 N7          4.1183   -5.7803   -9.2107 N.pl3     1 <0>        -0.5665
     28 H2         -0.9661    1.8710    0.0259 H         1 <0>         0.1384
     29 H3          1.1157    3.1795    0.0081 H         1 <0>         0.1422
     30 H4          3.2953    2.0145   -0.0190 H         1 <0>         0.1377
     31 H5         -0.9285   -0.5522    0.0083 H         1 <0>         0.1373
     32 H6          2.1877   -4.6002   -0.0441 H         1 <0>         0.1694
     33 H7          5.7544   -3.6251   -0.4356 H         1 <0>         0.1449
     34 H8          7.0219   -4.1179   -2.5143 H         1 <0>         0.1766
     35 H9          2.4044   -5.6537   -4.5614 H         1 <0>         0.4165
     36 H10         4.5927   -4.8598   -6.1607 H         1 <0>         0.0679
     37 H11         4.8897   -6.5184   -5.5871 H         1 <0>         0.0770
     38 H12         2.7075   -7.2330   -6.5231 H         1 <0>         0.0970
     39 H13         2.4104   -5.5744   -7.0967 H         1 <0>         0.0784
     40 H14         4.7159   -8.6076   -7.7713 H         1 <0>         0.1703
     41 H15         5.2034   -6.0448  -11.0661 H         1 <0>         0.2096
@<TRIPOS>BOND
     1    1    6 ar
     2    1    2 ar
     3    1   28 1
     4    2    3 ar
     5    2   29 1
     6    3    4 ar
     7    3   30 1
     8    4    9 1
     9    4    5 ar
    10    5    6 ar
    11    5    7 1
    12    6   31 1
    13    7    8 2
    14    8    9 1
    15    8   10 1
    16   10   11 1
    17   10   13 1
    18   10   32 1
    19   11   12 3
    20   13   18 ar
    21   13   14 ar
    22   14   15 ar
    23   14   33 1
    24   15   16 ar
    25   15   34 1
    26   16   17 ar
    27   17   18 ar
    28   17   19 1
    29   19   20 1
    30   19   35 1
    31   20   21 1
    32   20   36 1
    33   20   37 1
    34   21   38 1
    35   21   39 1
    36   21   22 1
    37   22   23 2
    38   22   27 1
    39   23   24 1
    40   23   40 1
    41   24   26 2
    42   25   27 1
    43   26   41 1
    44   26   27 1
@<TRIPOS>MOLECULE
CHEMBL254651__2
   41    44     0     0     0
SMALL
USER_CHARGES

@<TRIPOS>ATOM
      1 C1         -0.0164    1.3570    0.0095 C.ar      1 <0>        -0.1099
      2 C2          1.1559    2.1003    0.0023 C.ar      1 <0>        -0.0870
      3 C3          2.3751    1.4492   -0.0129 C.ar      1 <0>        -0.0666
      4 C4          2.4044    0.0758   -0.0205 C.ar      1 <0>        -0.1600
      5 C5          1.2262   -0.7047   -0.0135 C.ar      1 <0>         0.0753
      6 C6          0.0021   -0.0041    0.0020 C.ar      1 <0>        -0.0510
      7 N1          1.4635   -2.0326   -0.0233 N.2       1 <0>        -0.4805
      8 C7          2.6693   -2.5212   -0.0378 C.2       1 <0>         0.0889
      9 S1          3.6694   -1.1675   -0.0399 S.3       1 <0>         0.1173
     10 C8          3.0782   -3.9717   -0.0496 C.3       1 <0>         0.1565
     11 C9          3.8910   -4.2620    1.1428 C.1       1 <0>         0.2054
     12 N2          4.5183   -4.4861    2.0630 N.1       1 <0>        -0.3751
     13 C10         3.8860   -4.2558   -1.2896 C.ar      1 <0>         0.2200
     14 C11         5.2515   -4.0173   -1.3072 C.ar      1 <0>        -0.2787
     15 C12         5.9572   -4.2928   -2.4677 C.ar      1 <0>         0.2082
     16 N3          5.3109   -4.7722   -3.5176 N.ar      1 <0>        -0.5545
     17 C13         4.0049   -4.9889   -3.4680 C.ar      1 <0>         0.5751
     18 N4          3.3018   -4.7409   -2.3725 N.ar      1 <0>        -0.5514
     19 N5          3.3603   -5.4907   -4.5852 N.pl3     1 <0>        -0.6949
     20 C14         4.1218   -5.7758   -5.8039 C.3       1 <0>         0.1453
     21 C15         3.1783   -6.3170   -6.8799 C.3       1 <0>        -0.0452
     22 C16         3.9617   -6.6102   -8.1335 C.2       1 <0>         0.0027
     23 C17         3.9941   -7.7859   -8.7896 C.2       1 <0>        -0.0478
     24 N6          4.8218   -7.6158   -9.8664 N.pl3     1 <0>        -0.5701
     25 H1          5.0468   -8.2856  -10.5309 H         1 <0>         0.4221
     26 C18         5.2667   -6.3412   -9.8309 C.2       1 <0>         0.1887
     27 N7          4.7442   -5.7444   -8.7946 N.2       1 <0>        -0.4867
     28 H2         -0.9661    1.8710    0.0259 H         1 <0>         0.1380
     29 H3          1.1157    3.1795    0.0081 H         1 <0>         0.1419
     30 H4          3.2953    2.0145   -0.0190 H         1 <0>         0.1376
     31 H5         -0.9285   -0.5522    0.0083 H         1 <0>         0.1370
     32 H6          2.1877   -4.6002   -0.0441 H         1 <0>         0.1690
     33 H7          5.7544   -3.6251   -0.4356 H         1 <0>         0.1435
     34 H8          7.0219   -4.1179   -2.5143 H         1 <0>         0.1754
     35 H9          2.4044   -5.6537   -4.5614 H         1 <0>         0.4151
     36 H10         4.5927   -4.8598   -6.1607 H         1 <0>         0.0787
     37 H11         4.8897   -6.5184   -5.5871 H         1 <0>         0.0676
     38 H12         2.7075   -7.2330   -6.5231 H         1 <0>         0.0818
     39 H13         2.4104   -5.5744   -7.0967 H         1 <0>         0.0822
     40 H14         3.4684   -8.6894   -8.5180 H         1 <0>         0.1770
     41 H15         5.9400   -5.8894  -10.5443 H         1 <0>         0.2091
@<TRIPOS>BOND
     1    1    6 ar
     2    1    2 ar
     3    1   28 1
     4    2    3 ar
     5    2   29 1
     6    3    4 ar
     7    3   30 1
     8    4    9 1
     9    4    5 ar
    10    5    6 ar
    11    5    7 1
    12    6   31 1
    13    7    8 2
    14    8    9 1
    15    8   10 1
    16   10   11 1
    17   10   13 1
    18   10   32 1
    19   11   12 3
    20   13   18 ar
    21   13   14 ar
    22   14   15 ar
    23   14   33 1
    24   15   16 ar
    25   15   34 1
    26   16   17 ar
    27   17   18 ar
    28   17   19 1
    29   19   20 1
    30   19   35 1
    31   20   21 1
    32   20   36 1
    33   20   37 1
    34   21   22 1
    35   21   38 1
    36   21   39 1
    37   22   27 1
    38   22   23 2
    39   23   24 1
    40   23   40 1
    41   24   25 1
    42   24   26 1
    43   26   27 2
    44   26   41 1
@<TRIPOS>MOLECULE
CHEMBL254651__3
   42    45     0     0     0
SMALL
USER_CHARGES

@<TRIPOS>ATOM
      1 C1         -0.0164    1.3570    0.0095 C.ar      1 <0>        -0.1086
      2 C2          1.1559    2.1003    0.0023 C.ar      1 <0>        -0.0822
      3 C3          2.3751    1.4492   -0.0129 C.ar      1 <0>        -0.0683
      4 C4          2.4044    0.0758   -0.0205 C.ar      1 <0>        -0.1564
      5 C5          1.2262   -0.7047   -0.0135 C.ar      1 <0>         0.0721
      6 C6          0.0021   -0.0041    0.0020 C.ar      1 <0>        -0.0496
      7 N1          1.4635   -2.0326   -0.0233 N.2       1 <0>        -0.4764
      8 C7          2.6693   -2.5212   -0.0378 C.2       1 <0>         0.0807
      9 S1          3.6694   -1.1675   -0.0399 S.3       1 <0>         0.1128
     10 C8          3.0782   -3.9717   -0.0496 C.3       1 <0>         0.1573
     11 C9          3.8673   -4.2492   -1.2608 C.1       1 <0>         0.1980
     12 N2          4.4762   -4.4634   -2.1956 N.1       1 <0>        -0.3656
     13 C10         3.9103   -4.2689    1.1712 C.ar      1 <0>         0.2263
     14 C11         5.2740   -4.0197    1.1683 C.ar      1 <0>        -0.2637
     15 C12         6.0024   -4.3069    2.3117 C.ar      1 <0>         0.2072
     16 N3          5.3786   -4.8073    3.3656 N.ar      1 <0>        -0.5608
     17 C13         4.0736   -5.0338    3.3357 C.ar      1 <0>         0.5696
     18 N4          3.3475   -4.7656    2.2601 N.ar      1 <0>        -0.5444
     19 N5          3.4531   -5.5585    4.4561 N.pl3     1 <0>        -0.7029
     20 C14         4.2386   -5.8567    5.6563 C.3       1 <0>         0.1421
     21 C15         3.3188   -6.4224    6.7402 C.3       1 <0>        -0.0784
     22 C16         4.1267   -6.7291    7.9747 C.2       1 <0>         0.0351
     23 C17         4.8171   -7.8617    8.2076 C.2       1 <0>         0.0422
     24 N6          5.4011   -7.7237    9.4378 N.pl3     1 <0>        -0.5089
     25 H1          5.9642   -8.3755    9.8840 H         1 <0>         0.4690
     26 C18         5.0471   -6.5108    9.9143 C.cat     1 <0>         0.3102
     27 N7          4.2890   -5.9196    9.0318 N.pl3     1 <0>        -0.4739
     28 H2         -0.9661    1.8710    0.0259 H         1 <0>         0.1401
     29 H3          1.1157    3.1795    0.0081 H         1 <0>         0.1440
     30 H4          3.2953    2.0145   -0.0190 H         1 <0>         0.1387
     31 H5         -0.9285   -0.5522    0.0083 H         1 <0>         0.1380
     32 H6          2.1877   -4.6002   -0.0441 H         1 <0>         0.1700
     33 H7          5.7583   -3.6110    0.2938 H         1 <0>         0.1492
     34 H8          7.0665   -4.1248    2.3420 H         1 <0>         0.1794
     35 H9          2.4983   -5.7288    4.4467 H         1 <0>         0.4195
     36 H10         5.0082   -6.5895    5.4140 H         1 <0>         0.0789
     37 H11         4.7085   -4.9426    6.0193 H         1 <0>         0.0714
     38 H12         2.5491   -5.6896    6.9824 H         1 <0>         0.1050
     39 H13         2.8488   -7.3364    6.3771 H         1 <0>         0.1214
     40 H14         4.8947   -8.7150    7.5501 H         1 <0>         0.2283
     41 H15         5.3453   -6.0969   10.8662 H         1 <0>         0.2676
     42 H16         3.9024   -5.0350    9.1262 H         1 <0>         0.4656
@<TRIPOS>BOND
     1    1    6 ar
     2    1    2 ar
     3    1   28 1
     4    2    3 ar
     5    2   29 1
     6    3    4 ar
     7    3   30 1
     8    4    9 1
     9    4    5 ar
    10    5    6 ar
    11    5    7 1
    12    6   31 1
    13    7    8 2
    14    8    9 1
    15    8   10 1
    16   10   11 1
    17   10   13 1
    18   10   32 1
    19   11   12 3
    20   13   18 ar
    21   13   14 ar
    22   14   15 ar
    23   14   33 1
    24   15   16 ar
    25   15   34 1
    26   16   17 ar
    27   17   18 ar
    28   17   19 1
    29   19   20 1
    30   19   35 1
    31   20   21 1
    32   20   36 1
    33   20   37 1
    34   21   22 1
    35   21   38 1
    36   21   39 1
    37   22   27 1
    38   22   23 2
    39   23   24 1
    40   23   40 1
    41   24   25 1
    42   24   26 1
    43   26   27 2
    44   26   41 1
    45   27   42 1
@<TRIPOS>MOLECULE
CHEMBL254651__4
   41    44     0     0     0
SMALL
USER_CHARGES

@<TRIPOS>ATOM
      1 C1         -0.0164    1.3570    0.0095 C.ar      1 <0>        -0.1096
      2 C2          1.1559    2.1003    0.0023 C.ar      1 <0>        -0.0860
      3 C3          2.3751    1.4492   -0.0129 C.ar      1 <0>        -0.0669
      4 C4          2.4044    0.0758   -0.0205 C.ar      1 <0>        -0.1593
      5 C5          1.2262   -0.7047   -0.0135 C.ar      1 <0>         0.0747
      6 C6          0.0021   -0.0041    0.0020 C.ar      1 <0>        -0.0507
      7 N1          1.4635   -2.0326   -0.0233 N.2       1 <0>        -0.4797
      8 C7          2.6693   -2.5212   -0.0378 C.2       1 <0>         0.0872
      9 S1          3.6694   -1.1675   -0.0399 S.3       1 <0>         0.1168
     10 C8          3.0782   -3.9717   -0.0496 C.3       1 <0>         0.1567
     11 C9          3.8673   -4.2492   -1.2608 C.1       1 <0>         0.2042
     12 N2          4.4762   -4.4634   -2.1956 N.1       1 <0>        -0.3735
     13 C10         3.9103   -4.2689    1.1712 C.ar      1 <0>         0.2210
     14 C11         5.2740   -4.0197    1.1683 C.ar      1 <0>        -0.2753
     15 C12         6.0024   -4.3069    2.3117 C.ar      1 <0>         0.2082
     16 N3          5.3786   -4.8073    3.3656 N.ar      1 <0>        -0.5559
     17 C13         4.0736   -5.0338    3.3357 C.ar      1 <0>         0.5739
     18 N4          3.3475   -4.7656    2.2601 N.ar      1 <0>        -0.5496
     19 N5          3.4531   -5.5585    4.4561 N.pl3     1 <0>        -0.6963
     20 C14         4.2386   -5.8567    5.6563 C.3       1 <0>         0.1422
     21 C15         3.3188   -6.4224    6.7402 C.3       1 <0>        -0.0552
     22 C16         4.1267   -6.7291    7.9747 C.2       1 <0>        -0.0267
     23 C17         4.4533   -5.8658    8.9554 C.2       1 <0>        -0.0127
     24 N6          5.1753   -6.5304    9.8698 N.2       1 <0>        -0.4934
     25 H1          4.5981   -8.7641    7.8103 H         1 <0>         0.4199
     26 C18         5.3085   -7.7727    9.4930 C.2       1 <0>         0.1900
     27 N7          4.6646   -7.9401    8.3178 N.pl3     1 <0>        -0.5664
     28 H2         -0.9661    1.8710    0.0259 H         1 <0>         0.1384
     29 H3          1.1157    3.1795    0.0081 H         1 <0>         0.1423
     30 H4          3.2953    2.0145   -0.0190 H         1 <0>         0.1378
     31 H5         -0.9285   -0.5522    0.0083 H         1 <0>         0.1372
     32 H6          2.1877   -4.6002   -0.0441 H         1 <0>         0.1691
     33 H7          5.7583   -3.6110    0.2938 H         1 <0>         0.1449
     34 H8          7.0665   -4.1248    2.3420 H         1 <0>         0.1766
     35 H9          2.4983   -5.7288    4.4467 H         1 <0>         0.4164
     36 H10         5.0082   -6.5895    5.4140 H         1 <0>         0.0683
     37 H11         4.7085   -4.9426    6.0193 H         1 <0>         0.0766
     38 H12         2.5491   -5.6896    6.9824 H         1 <0>         0.0967
     39 H13         2.8488   -7.3364    6.3771 H         1 <0>         0.0788
     40 H14         4.1815   -4.8215    8.9981 H         1 <0>         0.1701
     41 H15         5.8423   -8.5405   10.0333 H         1 <0>         0.2096
@<TRIPOS>BOND
     1    1    6 ar
     2    1    2 ar
     3    1   28 1
     4    2    3 ar
     5    2   29 1
     6    3    4 ar
     7    3   30 1
     8    4    9 1
     9    4    5 ar
    10    5    6 ar
    11    5    7 1
    12    6   31 1
    13    7    8 2
    14    8    9 1
    15    8   10 1
    16   10   11 1
    17   10   13 1
    18   10   32 1
    19   11   12 3
    20   13   18 ar
    21   13   14 ar
    22   14   15 ar
    23   14   33 1
    24   15   16 ar
    25   15   34 1
    26   16   17 ar
    27   17   18 ar
    28   17   19 1
    29   19   20 1
    30   19   35 1
    31   20   21 1
    32   20   36 1
    33   20   37 1
    34   21   38 1
    35   21   39 1
    36   21   22 1
    37   22   23 2
    38   22   27 1
    39   23   24 1
    40   23   40 1
    41   24   26 2
    42   25   27 1
    43   26   41 1
    44   26   27 1
@<TRIPOS>MOLECULE
CHEMBL254651__5
   41    44     0     0     0
SMALL
USER_CHARGES

@<TRIPOS>ATOM
      1 C1         -0.0164    1.3570    0.0095 C.ar      1 <0>        -0.1099
      2 C2          1.1559    2.1003    0.0023 C.ar      1 <0>        -0.0872
      3 C3          2.3751    1.4492   -0.0129 C.ar      1 <0>        -0.0667
      4 C4          2.4044    0.0758   -0.0205 C.ar      1 <0>        -0.1603
      5 C5          1.2262   -0.7047   -0.0135 C.ar      1 <0>         0.0754
      6 C6          0.0021   -0.0041    0.0020 C.ar      1 <0>        -0.0511
      7 N1          1.4635   -2.0326   -0.0233 N.2       1 <0>        -0.4807
      8 C7          2.6693   -2.5212   -0.0378 C.2       1 <0>         0.0896
      9 S1          3.6694   -1.1675   -0.0399 S.3       1 <0>         0.1171
     10 C8          3.0782   -3.9717   -0.0496 C.3       1 <0>         0.1563
     11 C9          3.8673   -4.2492   -1.2608 C.1       1 <0>         0.2051
     12 N2          4.4762   -4.4634   -2.1956 N.1       1 <0>        -0.3746
     13 C10         3.9103   -4.2689    1.1712 C.ar      1 <0>         0.2200
     14 C11         5.2740   -4.0197    1.1683 C.ar      1 <0>        -0.2786
     15 C12         6.0024   -4.3069    2.3117 C.ar      1 <0>         0.2081
     16 N3          5.3786   -4.8073    3.3656 N.ar      1 <0>        -0.5544
     17 C13         4.0736   -5.0338    3.3357 C.ar      1 <0>         0.5750
     18 N4          3.3475   -4.7656    2.2601 N.ar      1 <0>        -0.5513
     19 N5          3.4531   -5.5585    4.4561 N.pl3     1 <0>        -0.6949
     20 C14         4.2386   -5.8567    5.6563 C.3       1 <0>         0.1453
     21 C15         3.3188   -6.4224    6.7402 C.3       1 <0>        -0.0452
     22 C16         4.1267   -6.7291    7.9747 C.2       1 <0>         0.0027
     23 C17         3.8806   -6.2688    9.2162 C.2       1 <0>        -0.0479
     24 N6          4.8498   -6.7890   10.0308 N.pl3     1 <0>        -0.5702
     25 H1          4.9412   -6.6392   10.9848 H         1 <0>         0.4221
     26 C18         5.6551   -7.5496    9.2583 C.2       1 <0>         0.1888
     27 N7          5.2136   -7.5131    8.0308 N.2       1 <0>        -0.4866
     28 H2         -0.9661    1.8710    0.0259 H         1 <0>         0.1380
     29 H3          1.1157    3.1795    0.0081 H         1 <0>         0.1418
     30 H4          3.2953    2.0145   -0.0190 H         1 <0>         0.1375
     31 H5         -0.9285   -0.5522    0.0083 H         1 <0>         0.1371
     32 H6          2.1877   -4.6002   -0.0441 H         1 <0>         0.1691
     33 H7          5.7583   -3.6110    0.2938 H         1 <0>         0.1435
     34 H8          7.0665   -4.1248    2.3420 H         1 <0>         0.1755
     35 H9          2.4983   -5.7288    4.4467 H         1 <0>         0.4151
     36 H10         5.0082   -6.5895    5.4140 H         1 <0>         0.0791
     37 H11         4.7085   -4.9426    6.0193 H         1 <0>         0.0672
     38 H12         2.5491   -5.6896    6.9824 H         1 <0>         0.0815
     39 H13         2.8488   -7.3364    6.3771 H         1 <0>         0.0825
     40 H14         3.0737   -5.6147    9.5120 H         1 <0>         0.1769
     41 H15         6.5189   -8.1001    9.6005 H         1 <0>         0.2092
@<TRIPOS>BOND
     1    1    6 ar
     2    1    2 ar
     3    1   28 1
     4    2    3 ar
     5    2   29 1
     6    3    4 ar
     7    3   30 1
     8    4    9 1
     9    4    5 ar
    10    5    6 ar
    11    5    7 1
    12    6   31 1
    13    7    8 2
    14    8    9 1
    15    8   10 1
    16   10   11 1
    17   10   13 1
    18   10   32 1
    19   11   12 3
    20   13   18 ar
    21   13   14 ar
    22   14   15 ar
    23   14   33 1
    24   15   16 ar
    25   15   34 1
    26   16   17 ar
    27   17   18 ar
    28   17   19 1
    29   19   20 1
    30   19   35 1
    31   20   21 1
    32   20   36 1
    33   20   37 1
    34   21   22 1
    35   21   38 1
    36   21   39 1
    37   22   27 1
    38   22   23 2
    39   23   24 1
    40   23   40 1
    41   24   25 1
    42   24   26 1
    43   26   27 2
    44   26   41 1
@<TRIPOS>MOLECULE
CHEMBL383955
   56    60     0     0     0
SMALL
USER_CHARGES

@<TRIPOS>ATOM
      1 C1         -0.0164    1.3599    0.0095 C.ar      1 <0>        -0.1353
      2 C2          1.1675    2.0864    0.0021 C.ar      1 <0>        -0.0652
      3 C3          2.3753    1.4471   -0.0133 C.ar      1 <0>        -0.1247
      4 C4          2.4219    0.0571   -0.0211 C.ar      1 <0>         0.0869
      5 C5          1.2274   -0.6839   -0.0132 C.ar      1 <0>        -0.0186
      6 C6          0.0021   -0.0041    0.0020 C.ar      1 <0>        -0.0339
      7 N1          1.5566   -1.9909   -0.0235 N.2       1 <0>        -0.2193
      8 N2          2.8355   -2.1294   -0.0369 N.2       1 <0>        -0.0035
      9 N3          3.4418   -0.8643   -0.0361 N.pl3     1 <0>        -0.3915
     10 C7          4.8791   -0.5810   -0.0496 C.3       1 <0>         0.1671
     11 C8          5.5056   -1.1827   -1.3096 C.3       1 <0>        -0.1424
     12 C9          7.0018   -0.8549   -1.3376 C.3       1 <0>         0.1206
     13 N4          7.6104   -1.3154   -0.0821 N.pl3     1 <0>        -0.9970
     14 C10         7.0282   -0.8687    1.1908 C.3       1 <0>         0.1215
     15 C11         5.5317   -1.1963    1.1904 C.3       1 <0>        -0.1426
     16 S1          8.9272   -2.3194   -0.1013 S.o2      1 <0>         2.7226
     17 O1          8.9293   -3.0103    1.1404 O.2       1 <0>        -0.9392
     18 O2          8.9030   -2.9971   -1.3501 O.2       1 <0>        -0.9401
     19 C12        10.3620   -1.2967   -0.1110 C.2       1 <0>        -0.7599
     20 C13        11.0714   -0.8113    0.9370 C.2       1 <0>        -0.0072
     21 C14        12.1769   -0.0196    0.6890 C.2       1 <0>        -0.1639
     22 C15        12.5190    0.2481   -0.5950 C.2       1 <0>        -0.1372
     23 S2         11.2632   -0.6373   -1.5040 S.3       1 <0>         0.1898
     24 C16        13.6653    1.0741   -1.1193 C.3       1 <0>         0.2001
     25 N5         14.8377    0.2167   -1.3103 N.am      1 <0>        -0.7267
     26 C17        15.9884    0.7423   -1.7751 C.2       1 <0>         0.5652
     27 O3         16.0535    1.9279   -2.0358 O.2       1 <0>        -0.5255
     28 C18        17.1711   -0.1226   -1.9678 C.ar      1 <0>        -0.1352
     29 C19        17.0978   -1.4857   -1.6748 C.ar      1 <0>        -0.0731
     30 C20        18.2045   -2.2878   -1.8571 C.ar      1 <0>        -0.1168
     31 C21        19.3874   -1.7436   -2.3295 C.ar      1 <0>        -0.0087
     32 C22        19.4663   -0.3920   -2.6219 C.ar      1 <0>        -0.1167
     33 C23        18.3645    0.4191   -2.4491 C.ar      1 <0>        -0.0436
     34 Cl1        20.7769   -2.7595   -2.5554 Cl        1 <0>        -0.0561
     35 H1         -0.9623    1.8809    0.0259 H         1 <0>         0.1376
     36 H2          1.1332    3.1658    0.0082 H         1 <0>         0.1379
     37 H3          3.2910    2.0197   -0.0196 H         1 <0>         0.1299
     38 H4         -0.9248   -0.5584    0.0075 H         1 <0>         0.1387
     39 H5          5.0367    0.4975   -0.0455 H         1 <0>         0.1086
     40 H6          5.3702   -2.2643   -1.3023 H         1 <0>         0.0895
     41 H7          5.0243   -0.7613   -2.1921 H         1 <0>         0.0879
     42 H8          7.4716   -1.3634   -2.1795 H         1 <0>         0.1062
     43 H9          7.1381    0.2220   -1.4362 H         1 <0>         0.0799
     44 H10         7.5154   -1.3863    2.0171 H         1 <0>         0.1061
     45 H11         7.1666    0.2071    1.2983 H         1 <0>         0.0793
     46 H12         5.0689   -0.7846    2.0873 H         1 <0>         0.0877
     47 H13         5.3961   -2.2778    1.1742 H         1 <0>         0.0894
     48 H14        10.7770   -1.0395    1.9508 H         1 <0>         0.1514
     49 H15        12.7593    0.3801    1.5060 H         1 <0>         0.1492
     50 H16        13.3840    1.5226   -2.0721 H         1 <0>         0.0937
     51 H17        13.9033    1.8609   -0.4035 H         1 <0>         0.1022
     52 H18        14.7858   -0.7293   -1.1023 H         1 <0>         0.4046
     53 H19        16.1762   -1.9109   -1.3058 H         1 <0>         0.1347
     54 H20        18.1490   -3.3423   -1.6308 H         1 <0>         0.1428
     55 H21        20.3914    0.0268   -2.9896 H         1 <0>         0.1442
     56 H22        18.4260    1.4720   -2.6814 H         1 <0>         0.1483
@<TRIPOS>BOND
     1    1    6 ar
     2    1    2 ar
     3    1   35 1
     4    2    3 ar
     5    2   36 1
     6    3    4 ar
     7    3   37 1
     8    4    9 1
     9    4    5 ar
    10    5    6 ar
    11    5    7 1
    12    6   38 1
    13    7    8 2
    14    8    9 1
    15    9   10 1
    16   10   15 1
    17   10   11 1
    18   10   39 1
    19   11   12 1
    20   11   40 1
    21   11   41 1
    22   12   13 1
    23   12   42 1
    24   12   43 1
    25   13   14 1
    26   13   16 1
    27   14   15 1
    28   14   44 1
    29   14   45 1
    30   15   46 1
    31   15   47 1
    32   16   17 2
    33   16   18 2
    34   16   19 1
    35   19   23 1
    36   19   20 2
    37   20   21 1
    38   20   48 1
    39   21   22 2
    40   21   49 1
    41   22   23 1
    42   22   24 1
    43   24   25 1
    44   24   50 1
    45   24   51 1
    46   25   26 am
    47   25   52 1
    48   26   27 2
    49   26   28 1
    50   28   33 ar
    51   28   29 ar
    52   29   30 ar
    53   29   53 1
    54   30   31 ar
    55   30   54 1
    56   31   32 ar
    57   31   34 1
    58   32   33 ar
    59   32   55 1
    60   33   56 1
@<TRIPOS>MOLECULE
CHEMBL399167
   56    59     0     0     0
SMALL
USER_CHARGES

@<TRIPOS>ATOM
      1 C1         -3.4506    4.0247   -0.1924 C.3       1 <0>        -0.0468
      2 N1         -3.0171    2.6340   -0.3824 N.4       1 <0>        -0.3828
      3 C2         -2.0062    2.2939    0.6277 C.3       1 <0>        -0.0561
      4 C3         -4.1721    1.7374   -0.2405 C.3       1 <0>        -0.0239
      5 C4         -3.7466    0.3030   -0.5606 C.3       1 <0>         0.0953
      6 N2         -4.8985   -0.5911   -0.4191 N.am      1 <0>        -0.7329
      7 C5         -4.7595   -1.9112   -0.6529 C.2       1 <0>         0.5715
      8 O1         -3.6783   -2.3599   -0.9813 O.2       1 <0>        -0.5194
      9 C6         -5.9204   -2.8124   -0.5103 C.ar      1 <0>        -0.1412
     10 C7         -7.1648   -2.2961   -0.1385 C.ar      1 <0>        -0.0829
     11 C8         -8.2463   -3.1365   -0.0063 C.ar      1 <0>        -0.0969
     12 C9         -8.1008   -4.5046   -0.2434 C.ar      1 <0>         0.0269
     13 C10        -6.8579   -5.0212   -0.6145 C.ar      1 <0>        -0.1004
     14 C11        -5.7768   -4.1812   -0.7527 C.ar      1 <0>        -0.0495
     15 C12        -9.2650   -5.4082   -0.1009 C.2       1 <0>         0.1263
     16 C13        -9.5424   -6.5995   -0.9115 C.ar      1 <0>        -0.1821
     17 C14        -8.8820   -7.2208   -1.9750 C.ar      1 <0>        -0.0173
     18 C15        -9.4058   -8.3484   -2.5352 C.ar      1 <0>        -0.1738
     19 C16       -10.5994   -8.8899   -2.0547 C.ar      1 <0>         0.2235
     20 C17       -11.2685   -8.2900   -1.0034 C.ar      1 <0>        -0.1823
     21 C18       -10.7458   -7.1386   -0.4211 C.ar      1 <0>         0.1577
     22 N3        -11.1570   -6.3286    0.6070 N.pl3     1 <0>        -0.4990
     23 H1        -11.9604   -6.4563    1.1354 H         1 <0>         0.4454
     24 N4        -10.2331   -5.2927    0.7766 N.2       1 <0>        -0.2283
     25 N5        -11.1219  -10.0456   -2.6402 N.pl3     1 <0>        -0.6787
     26 C19       -11.6648  -11.0521   -1.8364 C.ar      1 <0>         0.2029
     27 C20       -11.5418  -10.9818   -0.4546 C.ar      1 <0>        -0.1774
     28 C21       -12.0797  -11.9776    0.3367 C.ar      1 <0>        -0.0720
     29 C22       -12.7401  -13.0447   -0.2446 C.ar      1 <0>        -0.1490
     30 C23       -12.8648  -13.1187   -1.6198 C.ar      1 <0>        -0.0671
     31 C24       -12.3340  -12.1229   -2.4177 C.ar      1 <0>        -0.0966
     32 Cl1       -12.4971  -12.2125   -4.1437 Cl        1 <0>        -0.0660
     33 H2         -2.5936    4.6899   -0.2977 H         1 <0>         0.1282
     34 H3         -4.2007    4.2770   -0.9419 H         1 <0>         0.1251
     35 H4         -3.8791    4.1389    0.8033 H         1 <0>         0.1237
     36 H5         -1.1492    2.9591    0.5225 H         1 <0>         0.1289
     37 H6         -2.4347    2.4081    1.6234 H         1 <0>         0.1248
     38 H7         -1.6846    1.2620    0.4868 H         1 <0>         0.1266
     39 H8         -4.5461    1.7857    0.7822 H         1 <0>         0.1380
     40 H9         -4.9582    2.0456   -0.9298 H         1 <0>         0.1390
     41 H10        -3.3726    0.2547   -1.5833 H         1 <0>         0.0912
     42 H11        -2.9605   -0.0052    0.1287 H         1 <0>         0.0916
     43 H12        -5.7611   -0.2331   -0.1572 H         1 <0>         0.4079
     44 H13        -7.2774   -1.2378    0.0453 H         1 <0>         0.1274
     45 H14        -9.2079   -2.7377    0.2814 H         1 <0>         0.1385
     46 H15        -6.7460   -6.0797   -0.7974 H         1 <0>         0.1413
     47 H16        -4.8165   -4.5804   -1.0440 H         1 <0>         0.1449
     48 H17        -7.9582   -6.8082   -2.3530 H         1 <0>         0.1342
     49 H18        -8.8934   -8.8261   -3.3571 H         1 <0>         0.1354
     50 H19       -12.1916   -8.7131   -0.6356 H         1 <0>         0.1375
     51 H20       -11.1080  -10.1497   -3.6045 H         1 <0>         0.4169
     52 H21       -11.0257  -10.1493    0.0004 H         1 <0>         0.1395
     53 H22       -11.9843  -11.9232    1.4111 H         1 <0>         0.1311
     54 H23       -13.1590  -13.8222    0.3769 H         1 <0>         0.1332
     55 H24       -13.3811  -13.9534   -2.0705 H         1 <0>         0.1374
     56 H25        -2.6205    2.5282   -1.3041 H         1 <0>         0.4306
@<TRIPOS>BOND
     1    1    2 1
     2    1   33 1
     3    1   34 1
     4    1   35 1
     5    2    3 1
     6    2    4 1
     7    2   56 1
     8    3   36 1
     9    3   37 1
    10    3   38 1
    11    4    5 1
    12    4   39 1
    13    4   40 1
    14    5    6 1
    15    5   41 1
    16    5   42 1
    17    6    7 am
    18    6   43 1
    19    7    8 2
    20    7    9 1
    21    9   14 ar
    22    9   10 ar
    23   10   11 ar
    24   10   44 1
    25   11   12 ar
    26   11   45 1
    27   12   13 ar
    28   12   15 1
    29   13   14 ar
    30   13   46 1
    31   14   47 1
    32   15   24 2
    33   15   16 1
    34   16   21 ar
    35   16   17 ar
    36   17   18 ar
    37   17   48 1
    38   18   19 ar
    39   18   49 1
    40   19   20 ar
    41   19   25 1
    42   20   21 ar
    43   20   50 1
    44   21   22 1
    45   22   23 1
    46   22   24 1
    47   25   26 1
    48   25   51 1
    49   26   31 ar
    50   26   27 ar
    51   27   28 ar
    52   27   52 1
    53   28   29 ar
    54   28   53 1
    55   29   30 ar
    56   29   54 1
    57   30   31 ar
    58   30   55 1
    59   31   32 1
@<TRIPOS>MOLECULE
CHEMBL399167__1
   56    59     0     0     0
SMALL
USER_CHARGES

@<TRIPOS>ATOM
      1 C1          0.7496    0.7082   -0.2973 C.3       1 <0>        -0.0470
      2 N1          0.6160   -0.7429   -0.1122 N.4       1 <0>        -0.3828
      3 C2          1.1613   -1.1217    1.1982 C.3       1 <0>        -0.0562
      4 C3         -0.8032   -1.1165   -0.1785 C.3       1 <0>        -0.0238
      5 C4         -0.9334   -2.6394   -0.1107 C.3       1 <0>         0.0949
      6 N2         -2.3487   -3.0119   -0.1768 N.am      1 <0>        -0.7323
      7 C5         -2.7065   -4.3106   -0.1338 C.2       1 <0>         0.5701
      8 O1         -1.8545   -5.1731   -0.0401 O.2       1 <0>        -0.5168
      9 C6         -4.1321   -4.6858   -0.2004 C.ar      1 <0>        -0.1378
     10 C7         -5.1114   -3.6940   -0.3139 C.ar      1 <0>        -0.0789
     11 C8         -6.4307   -4.0406   -0.3751 C.ar      1 <0>        -0.1103
     12 C9         -6.8027   -5.3887   -0.3246 C.ar      1 <0>         0.0030
     13 C10        -5.8224   -6.3808   -0.2115 C.ar      1 <0>        -0.0924
     14 C11        -4.5031   -6.0334   -0.1557 C.ar      1 <0>        -0.0464
     15 C12        -8.2261   -5.7632   -0.3901 C.2       1 <0>         0.1336
     16 C13        -8.7765   -6.7858   -1.1676 C.ar      1 <0>        -0.1854
     17 C14        -8.2561   -7.7304   -2.0709 C.ar      1 <0>        -0.0300
     18 C15        -9.0913   -8.6123   -2.6766 C.ar      1 <0>        -0.1598
     19 C16       -10.4703   -8.6088   -2.4254 C.ar      1 <0>         0.2117
     20 C17       -11.0366   -7.7186   -1.5610 C.ar      1 <0>        -0.1444
     21 C18       -10.2211   -6.7766   -0.8998 C.ar      1 <0>         0.1284
     22 N3        -10.4467   -5.8076   -0.0286 N.2       1 <0>        -0.2863
     23 H1         -9.1378   -4.4465    0.9162 H         1 <0>         0.4440
     24 N4         -9.2364   -5.1847    0.2947 N.pl3     1 <0>        -0.4158
     25 N5        -11.2843   -9.5392   -3.0763 N.pl3     1 <0>        -0.6809
     26 C19       -10.8683  -10.8680   -3.1970 C.ar      1 <0>         0.2074
     27 C20        -9.7260  -11.3027   -2.5370 C.ar      1 <0>        -0.1761
     28 C21        -9.3179  -12.6165   -2.6580 C.ar      1 <0>        -0.0717
     29 C22       -10.0448  -13.4997   -3.4354 C.ar      1 <0>        -0.1518
     30 C23       -11.1823  -13.0712   -4.0945 C.ar      1 <0>        -0.0670
     31 C24       -11.6001  -11.7594   -3.9732 C.ar      1 <0>        -0.0988
     32 Cl1       -13.0323  -11.2236   -4.7950 Cl        1 <0>        -0.0672
     33 H2          1.8026    0.9854   -0.2481 H         1 <0>         0.1286
     34 H3          0.3449    0.9893   -1.2696 H         1 <0>         0.1252
     35 H4          0.2003    1.2268    0.4885 H         1 <0>         0.1237
     36 H5          0.6121   -0.6031    1.9840 H         1 <0>         0.1249
     37 H6          1.0622   -2.1984    1.3355 H         1 <0>         0.1265
     38 H7          2.2144   -0.8445    1.2473 H         1 <0>         0.1293
     39 H8         -1.3363   -0.6685    0.6601 H         1 <0>         0.1378
     40 H9         -1.2303   -0.7566   -1.1145 H         1 <0>         0.1390
     41 H10        -0.4003   -3.0873   -0.9493 H         1 <0>         0.0919
     42 H11        -0.5063   -2.9993    0.8253 H         1 <0>         0.0922
     43 H12        -3.0284   -2.3238   -0.2516 H         1 <0>         0.4076
     44 H13        -4.8242   -2.6536   -0.3528 H         1 <0>         0.1288
     45 H14        -7.1869   -3.2745   -0.4620 H         1 <0>         0.1349
     46 H15        -6.1091   -7.4214   -0.1725 H         1 <0>         0.1442
     47 H16        -3.7461   -6.7993   -0.0728 H         1 <0>         0.1469
     48 H17        -7.1972   -7.7535   -2.2817 H         1 <0>         0.1297
     49 H18        -8.6836   -9.3340   -3.3690 H         1 <0>         0.1351
     50 H19       -12.1019   -7.7348   -1.3841 H         1 <0>         0.1353
     51 H20       -12.1381   -9.2628   -3.4446 H         1 <0>         0.4150
     52 H21        -9.1572  -10.6137   -1.9302 H         1 <0>         0.1402
     53 H22        -8.4298  -12.9547   -2.1449 H         1 <0>         0.1309
     54 H23        -9.7229  -14.5264   -3.5283 H         1 <0>         0.1320
     55 H24       -11.7472  -13.7633   -4.7014 H         1 <0>         0.1362
     56 H25         1.1245   -1.2230   -0.8396 H         1 <0>         0.4307
@<TRIPOS>BOND
     1    1    2 1
     2    1   33 1
     3    1   34 1
     4    1   35 1
     5    2    3 1
     6    2    4 1
     7    2   56 1
     8    3   36 1
     9    3   37 1
    10    3   38 1
    11    4    5 1
    12    4   39 1
    13    4   40 1
    14    5    6 1
    15    5   41 1
    16    5   42 1
    17    6    7 am
    18    6   43 1
    19    7    8 2
    20    7    9 1
    21    9   14 ar
    22    9   10 ar
    23   10   11 ar
    24   10   44 1
    25   11   12 ar
    26   11   45 1
    27   12   13 ar
    28   12   15 1
    29   13   14 ar
    30   13   46 1
    31   14   47 1
    32   15   16 2
    33   15   24 1
    34   16   17 ar
    35   16   21 ar
    36   17   18 ar
    37   17   48 1
    38   18   19 ar
    39   18   49 1
    40   19   20 ar
    41   19   25 1
    42   20   21 ar
    43   20   50 1
    44   21   22 2
    45   22   24 1
    46   23   24 1
    47   25   26 1
    48   25   51 1
    49   26   31 ar
    50   26   27 ar
    51   27   28 ar
    52   27   52 1
    53   28   29 ar
    54   28   53 1
    55   29   30 ar
    56   29   54 1
    57   30   31 ar
    58   30   55 1
    59   31   32 1
@<TRIPOS>MOLECULE
CHEMBL103667
   76    80     0     0     0
SMALL
USER_CHARGES

@<TRIPOS>ATOM
      1 C1         -0.3322    1.6243    0.4536 C.3       1 <0>        -0.1171
      2 C2         -0.2070    0.1262    0.3489 C.ar      1 <0>        -0.0885
      3 C3         -0.0762   -0.4702   -0.8918 C.ar      1 <0>        -0.0946
      4 C4          0.0387   -1.8430   -0.9910 C.ar      1 <0>        -0.1046
      5 C5          0.0232   -2.6243    0.1567 C.ar      1 <0>         0.1532
      6 C6         -0.1078   -2.0225    1.4010 C.ar      1 <0>        -0.1479
      7 C7         -0.2175   -0.6488    1.4941 C.ar      1 <0>        -0.0928
      8 N1          0.1391   -4.0176    0.0593 N.pl3     1 <0>        -0.3431
      9 C8          0.7734   -4.8336    0.9447 C.2       1 <0>         0.3232
     10 C9          0.6550   -6.1082    0.4821 C.2       1 <0>        -0.2571
     11 C10        -0.0685   -6.0655   -0.7131 C.2       1 <0>         0.1105
     12 N2         -0.3823   -4.8199   -0.9638 N.2       1 <0>        -0.2743
     13 C11        -0.4319   -7.2539   -1.5655 C.3       1 <0>         0.0127
     14 C12        -1.5690   -8.0309   -0.8991 C.3       1 <0>        -0.1378
     15 C13        -0.8836   -6.7725   -2.9458 C.3       1 <0>        -0.1377
     16 C14         0.7880   -8.1649   -1.7171 C.3       1 <0>        -0.1383
     17 N3          1.4255   -4.4365    2.1118 N.am      1 <0>        -0.6589
     18 C15         2.0148   -5.3566    2.9008 C.2       1 <0>         0.7134
     19 O1          1.9779   -6.5329    2.5951 O.2       1 <0>        -0.5379
     20 N4          2.6450   -4.9728    4.0287 N.am      1 <0>        -0.6686
     21 C16         3.1683   -5.9347    4.8995 C.ar      1 <0>         0.1168
     22 C17         3.6902   -7.1092    4.4032 C.ar      1 <0>        -0.0692
     23 C18         4.2142   -8.0739    5.2583 C.ar      1 <0>        -0.2076
     24 C19         4.2254   -7.8840    6.6110 C.ar      1 <0>         0.1429
     25 C20         3.7005   -6.6955    7.1565 C.ar      1 <0>        -0.0567
     26 C21         3.1707   -5.7065    6.2914 C.ar      1 <0>        -0.0235
     27 C22         2.6525   -4.5206    6.8359 C.ar      1 <0>        -0.1251
     28 C23         2.6706   -4.3340    8.1844 C.ar      1 <0>        -0.0954
     29 C24         3.1968   -5.3041    9.0353 C.ar      1 <0>        -0.1310
     30 C25         3.6971   -6.4706    8.5431 C.ar      1 <0>        -0.0731
     31 O2          4.7412   -8.8392    7.4289 O.3       1 <0>        -0.2913
     32 C26         5.2551  -10.0181    6.8059 C.3       1 <0>         0.0620
     33 C27         5.7885  -10.9703    7.8782 C.3       1 <0>         0.0554
     34 N5          4.6825  -11.4036    8.7424 N.3       1 <0>        -0.5296
     35 C28         5.1863  -12.1149    9.9262 C.3       1 <0>         0.0180
     36 C29         4.0078  -12.4950   10.8265 C.3       1 <0>         0.0632
     37 O3          3.0768  -13.2812   10.0780 O.3       1 <0>        -0.3852
     38 C30         2.5653  -12.6187    8.9183 C.3       1 <0>         0.0640
     39 C31         3.7292  -12.2399    7.9987 C.3       1 <0>         0.0129
     40 H1          0.6601    2.0664    0.5429 H         1 <0>         0.0742
     41 H2         -0.8233    2.0112   -0.4393 H         1 <0>         0.0701
     42 H3         -0.9239    1.8789    1.3329 H         1 <0>         0.0694
     43 H4         -0.0643    0.1380   -1.7842 H         1 <0>         0.1341
     44 H5          0.1401   -2.3084   -1.9603 H         1 <0>         0.1362
     45 H6         -0.1202   -2.6276    2.2955 H         1 <0>         0.1242
     46 H7         -0.3153   -0.1798    2.4620 H         1 <0>         0.1341
     47 H8          1.0504   -6.9953    0.9546 H         1 <0>         0.1800
     48 H9         -2.4381   -7.3819   -0.7911 H         1 <0>         0.0563
     49 H10        -1.8318   -8.8905   -1.5157 H         1 <0>         0.0654
     50 H11        -1.2472   -8.3739    0.0842 H         1 <0>         0.0613
     51 H12        -0.0734   -6.2189   -3.4205 H         1 <0>         0.0565
     52 H13        -1.1464   -7.6321   -3.5623 H         1 <0>         0.0602
     53 H14        -1.7526   -6.1235   -2.8378 H         1 <0>         0.0610
     54 H15         1.1097   -8.5078   -0.7338 H         1 <0>         0.0634
     55 H16         0.5251   -9.0245   -2.3336 H         1 <0>         0.0645
     56 H17         1.5981   -7.6113   -2.1918 H         1 <0>         0.0568
     57 H18         1.4549   -3.4981    2.3556 H         1 <0>         0.4088
     58 H19         2.7357   -4.0298    4.2367 H         1 <0>         0.4073
     59 H20         3.6923   -7.2835    3.3374 H         1 <0>         0.1464
     60 H21         4.6179   -8.9869    4.8462 H         1 <0>         0.1307
     61 H22         2.2419   -3.7601    6.1883 H         1 <0>         0.1215
     62 H23         2.2717   -3.4208    8.6007 H         1 <0>         0.1248
     63 H24         3.1998   -5.1318   10.1014 H         1 <0>         0.1256
     64 H25         4.1011   -7.2140    9.2144 H         1 <0>         0.1361
     65 H26         4.4593  -10.5100    6.2466 H         1 <0>         0.0659
     66 H27         6.0630   -9.7472    6.1262 H         1 <0>         0.0707
     67 H28         6.2384  -11.8405    7.4001 H         1 <0>         0.0601
     68 H29         6.5394  -10.4571    8.4789 H         1 <0>         0.0903
     69 H30         5.7107  -13.0176    9.6126 H         1 <0>         0.0436
     70 H31         5.8704  -11.4682   10.4757 H         1 <0>         0.0882
     71 H32         4.3708  -13.0723   11.6768 H         1 <0>         0.0990
     72 H33         3.5159  -11.5902   11.1834 H         1 <0>         0.0611
     73 H34         1.8850  -13.2856    8.3885 H         1 <0>         0.0988
     74 H35         2.0314  -11.7175    9.2197 H         1 <0>         0.0612
     75 H36         3.3496  -11.6844    7.1411 H         1 <0>         0.0866
     76 H37         4.2303  -13.1446    7.6543 H         1 <0>         0.0443
@<TRIPOS>BOND
     1    1    2 1
     2    1   40 1
     3    1   41 1
     4    1   42 1
     5    2    7 ar
     6    2    3 ar
     7    3    4 ar
     8    3   43 1
     9    4    5 ar
    10    4   44 1
    11    5    6 ar
    12    5    8 1
    13    6    7 ar
    14    6   45 1
    15    7   46 1
    16    8   12 1
    17    8    9 1
    18    9   10 2
    19    9   17 1
    20   10   11 1
    21   10   47 1
    22   11   12 2
    23   11   13 1
    24   13   14 1
    25   13   15 1
    26   13   16 1
    27   14   48 1
    28   14   49 1
    29   14   50 1
    30   15   51 1
    31   15   52 1
    32   15   53 1
    33   16   54 1
    34   16   55 1
    35   16   56 1
    36   17   18 am
    37   17   57 1
    38   18   19 2
    39   18   20 am
    40   20   21 1
    41   20   58 1
    42   21   26 ar
    43   21   22 ar
    44   22   23 ar
    45   22   59 1
    46   23   24 ar
    47   23   60 1
    48   24   25 ar
    49   24   31 1
    50   25   30 ar
    51   25   26 ar
    52   26   27 ar
    53   27   28 ar
    54   27   61 1
    55   28   29 ar
    56   28   62 1
    57   29   30 ar
    58   29   63 1
    59   30   64 1
    60   31   32 1
    61   32   33 1
    62   32   65 1
    63   32   66 1
    64   33   34 1
    65   33   67 1
    66   33   68 1
    67   34   39 1
    68   34   35 1
    69   35   36 1
    70   35   69 1
    71   35   70 1
    72   36   37 1
    73   36   71 1
    74   36   72 1
    75   37   38 1
    76   38   39 1
    77   38   73 1
    78   38   74 1
    79   39   75 1
    80   39   76 1
@<TRIPOS>MOLECULE
CHEMBL103667__1
   77    81     0     0     0
SMALL
USER_CHARGES

@<TRIPOS>ATOM
      1 C1          0.0965    2.2706    1.2839 C.3       1 <0>        -0.1189
      2 C2          0.1488    0.7761    1.0973 C.ar      1 <0>        -0.0845
      3 C3          0.2264    0.2421   -0.1758 C.ar      1 <0>        -0.0934
      4 C4          0.2745   -1.1272   -0.3501 C.ar      1 <0>        -0.1023
      5 C5          0.2453   -1.9676    0.7547 C.ar      1 <0>         0.1483
      6 C6          0.1678   -1.4284    2.0318 C.ar      1 <0>        -0.1481
      7 C7          0.1249   -0.0581    2.1999 C.ar      1 <0>        -0.0936
      8 N1          0.2935   -3.3576    0.5811 N.pl3     1 <0>        -0.3396
      9 C8          0.9063   -4.2483    1.4076 C.2       1 <0>         0.3176
     10 C9          0.7188   -5.4894    0.8810 C.2       1 <0>        -0.2552
     11 C10        -0.0258   -5.3491   -0.2936 C.2       1 <0>         0.1093
     12 N2         -0.2856   -4.0787   -0.4709 N.2       1 <0>        -0.2685
     13 C11        -0.4618   -6.4719   -1.1993 C.3       1 <0>         0.0124
     14 C12        -1.6207   -7.2306   -0.5494 C.3       1 <0>        -0.1374
     15 C13        -0.9180   -5.8965   -2.5416 C.3       1 <0>        -0.1394
     16 C14         0.7105   -7.4285   -1.4263 C.3       1 <0>        -0.1375
     17 N3          1.5997   -3.9451    2.5790 N.am      1 <0>        -0.6555
     18 C15         2.1608   -4.9325    3.3048 C.2       1 <0>         0.7165
     19 O1          2.0624   -6.0877    2.9382 O.2       1 <0>        -0.5384
     20 N4          2.8309   -4.6395    4.4368 N.am      1 <0>        -0.6737
     21 C16         3.3294   -5.6699    5.2413 C.ar      1 <0>         0.1531
     22 C17         3.7902   -6.8355    4.6694 C.ar      1 <0>        -0.0879
     23 C18         4.2890   -7.8678    5.4580 C.ar      1 <0>        -0.1788
     24 C19         4.3352   -7.7548    6.8186 C.ar      1 <0>         0.1117
     25 C20         3.8729   -6.5779    7.4404 C.ar      1 <0>        -0.0449
     26 C21         3.3692   -5.5205    6.6433 C.ar      1 <0>        -0.0320
     27 C22         2.9135   -4.3464    7.2639 C.ar      1 <0>        -0.1116
     28 C23         2.9663   -4.2368    8.6199 C.ar      1 <0>        -0.0964
     29 C24         3.4670   -5.2744    9.4040 C.ar      1 <0>        -0.1119
     30 C25         3.9067   -6.4313    8.8371 C.ar      1 <0>        -0.0953
     31 O2          4.8253   -8.7753    7.5707 O.3       1 <0>        -0.3254
     32 C26         5.2756   -9.9379    6.8723 C.3       1 <0>         0.0242
     33 C27         5.7885  -10.9703    7.8782 C.3       1 <0>         0.0004
     34 N5          4.6825  -11.4036    8.7424 N.4       1 <0>        -0.3871
     35 C28         5.2015  -12.2837    9.7983 C.3       1 <0>        -0.0437
     36 C29         4.0473  -12.7335   10.6975 C.3       1 <0>         0.0354
     37 O3          3.0593  -13.3940    9.9016 O.3       1 <0>        -0.3558
     38 C30         2.5399  -12.5843    8.8431 C.3       1 <0>         0.0371
     39 C31         3.6913  -12.1342    7.9405 C.3       1 <0>        -0.0503
     40 H1          1.1101    2.6612    1.3741 H         1 <0>         0.0754
     41 H2         -0.3937    2.7272    0.4241 H         1 <0>         0.0718
     42 H3         -0.4648    2.5044    2.1886 H         1 <0>         0.0703
     43 H4          0.2490    0.8963   -1.0348 H         1 <0>         0.1360
     44 H5          0.3344   -1.5438   -1.3447 H         1 <0>         0.1371
     45 H6          0.1450   -2.0796    2.8931 H         1 <0>         0.1223
     46 H7          0.0687    0.3621    3.1932 H         1 <0>         0.1345
     47 H8          1.0814   -6.4178    1.2968 H         1 <0>         0.1785
     48 H9         -2.4558   -6.5491   -0.3876 H         1 <0>         0.0571
     49 H10        -1.9360   -8.0427   -1.2044 H         1 <0>         0.0664
     50 H11        -1.2957   -7.6405    0.4069 H         1 <0>         0.0592
     51 H12        -0.0924   -5.3560   -3.0046 H         1 <0>         0.0574
     52 H13        -1.2333   -6.7086   -3.1966 H         1 <0>         0.0616
     53 H14        -1.7532   -5.2150   -2.3798 H         1 <0>         0.0621
     54 H15         1.0354   -7.8383   -0.4701 H         1 <0>         0.0609
     55 H16         0.3951   -8.2406   -2.0814 H         1 <0>         0.0654
     56 H17         1.5360   -6.8879   -1.8893 H         1 <0>         0.0573
     57 H18         1.6782   -3.0236    2.8714 H         1 <0>         0.4108
     58 H19         2.9675   -3.7142    4.6938 H         1 <0>         0.4114
     59 H20         3.7637   -6.9495    3.5958 H         1 <0>         0.1530
     60 H21         4.6447   -8.7724    4.9872 H         1 <0>         0.1321
     61 H22         2.5233   -3.5341    6.6686 H         1 <0>         0.1279
     62 H23         2.6155   -3.3325    9.0948 H         1 <0>         0.1316
     63 H24         3.4985   -5.1624   10.4777 H         1 <0>         0.1298
     64 H25         4.2914   -7.2275    9.4572 H         1 <0>         0.1284
     65 H26         4.4483  -10.3637    6.3045 H         1 <0>         0.0883
     66 H27         6.0807   -9.6633    6.1909 H         1 <0>         0.1130
     67 H28         6.1899  -11.8308    7.3429 H         1 <0>         0.1513
     68 H29         6.5734  -10.5239    8.4888 H         1 <0>         0.1448
     69 H30         5.6713  -13.1569    9.3456 H         1 <0>         0.1404
     70 H31         5.9368  -11.7427   10.3939 H         1 <0>         0.1439
     71 H32         4.4230  -13.4208   11.4556 H         1 <0>         0.1430
     72 H33         3.6029  -11.8640   11.1817 H         1 <0>         0.0815
     73 H34         1.8246  -13.1635    8.2592 H         1 <0>         0.1429
     74 H35         2.0439  -11.7096    9.2638 H         1 <0>         0.0818
     75 H36         3.3056  -11.4821    7.1569 H         1 <0>         0.1410
     76 H37         4.1617  -13.0074    7.4885 H         1 <0>         0.1417
     77 H38         4.2467  -10.5958    9.1615 H         1 <0>         0.4297
@<TRIPOS>BOND
     1    1    2 1
     2    1   40 1
     3    1   41 1
     4    1   42 1
     5    2    7 ar
     6    2    3 ar
     7    3    4 ar
     8    3   43 1
     9    4    5 ar
    10    4   44 1
    11    5    6 ar
    12    5    8 1
    13    6    7 ar
    14    6   45 1
    15    7   46 1
    16    8   12 1
    17    8    9 1
    18    9   10 2
    19    9   17 1
    20   10   11 1
    21   10   47 1
    22   11   12 2
    23   11   13 1
    24   13   14 1
    25   13   15 1
    26   13   16 1
    27   14   48 1
    28   14   49 1
    29   14   50 1
    30   15   51 1
    31   15   52 1
    32   15   53 1
    33   16   54 1
    34   16   55 1
    35   16   56 1
    36   17   18 am
    37   17   57 1
    38   18   19 2
    39   18   20 am
    40   20   21 1
    41   20   58 1
    42   21   26 ar
    43   21   22 ar
    44   22   23 ar
    45   22   59 1
    46   23   24 ar
    47   23   60 1
    48   24   25 ar
    49   24   31 1
    50   25   30 ar
    51   25   26 ar
    52   26   27 ar
    53   27   28 ar
    54   27   61 1
    55   28   29 ar
    56   28   62 1
    57   29   30 ar
    58   29   63 1
    59   30   64 1
    60   31   32 1
    61   32   33 1
    62   32   65 1
    63   32   66 1
    64   33   34 1
    65   33   67 1
    66   33   68 1
    67   34   39 1
    68   34   35 1
    69   34   77 1
    70   35   36 1
    71   35   69 1
    72   35   70 1
    73   36   37 1
    74   36   71 1
    75   36   72 1
    76   37   38 1
    77   38   39 1
    78   38   73 1
    79   38   74 1
    80   39   75 1
    81   39   76 1
@<TRIPOS>MOLECULE
CHEMBL253174
   28    31     0     0     0
SMALL
USER_CHARGES

@<TRIPOS>ATOM
      1 C1          0.0526    1.4243    0.7086 C.ar      1 <0>        -0.0839
      2 C2          1.2472    2.1308    0.7022 C.ar      1 <0>        -0.1137
      3 C3          2.4545    1.4801    0.5608 C.ar      1 <0>        -0.0568
      4 C4          2.4782    0.0912    0.4202 C.ar      1 <0>        -0.1483
      5 C5          1.2538   -0.6238    0.4157 C.ar      1 <0>         0.0078
      6 C6          0.0484    0.0507    0.5665 C.ar      1 <0>        -0.0854
      7 C7          1.3030   -2.0947    0.2339 C.2       1 <0>         0.1470
      8 N1          0.3346   -2.9224    0.4982 N.2       1 <0>        -0.4067
      9 S1          0.8613   -4.4869    0.1903 S.3       1 <0>         0.1320
     10 C8          2.5930   -4.1959    0.0408 C.2       1 <0>        -0.2436
     11 C9          3.6968   -4.9090    0.1624 C.2       1 <0>         0.0244
     12 C10         4.9728   -4.1741   -0.0290 C.2       1 <0>        -0.2720
     13 C11         4.9996   -2.8349    0.1535 C.2       1 <0>         0.2095
     14 C12         3.7466   -2.1105    0.5337 C.3       1 <0>        -0.0926
     15 C13         2.5852   -2.7089   -0.2863 C.3       1 <0>        -0.0516
     16 C14         3.7584   -0.6293    0.2823 C.2       1 <0>         0.4160
     17 O1          4.7797   -0.0489   -0.0219 O.2       1 <0>        -0.4308
     18 N2          6.1851   -2.1341   -0.0117 N.pl3     1 <0>        -0.8563
     19 H1         -0.8813    1.9529    0.8302 H         1 <0>         0.1386
     20 H2          1.2308    3.2053    0.8091 H         1 <0>         0.1373
     21 H3          3.3769    2.0418    0.5585 H         1 <0>         0.1422
     22 H4         -0.8838   -0.4946    0.5729 H         1 <0>         0.1433
     23 H5          3.6734   -5.9649    0.3881 H         1 <0>         0.1431
     24 H6          5.8706   -4.7042   -0.3108 H         1 <0>         0.1315
     25 H7          3.5510   -2.2762    1.5932 H         1 <0>         0.1294
     26 H8          2.7037   -2.5357   -1.3559 H         1 <0>         0.1319
     27 H9          6.9187   -2.5317   -0.5063 H         1 <0>         0.4003
     28 H10         6.2806   -1.2463    0.3673 H         1 <0>         0.4074
@<TRIPOS>BOND
     1    1    6 ar
     2    1    2 ar
     3    1   19 1
     4    2    3 ar
     5    2   20 1
     6    3    4 ar
     7    3   21 1
     8    4   16 1
     9    4    5 ar
    10    5    6 ar
    11    5    7 1
    12    6   22 1
    13    7   15 1
    14    7    8 2
    15    8    9 1
    16    9   10 1
    17   10   15 1
    18   10   11 2
    19   11   12 1
    20   11   23 1
    21   12   13 2
    22   12   24 1
    23   13   14 1
    24   13   18 1
    25   14   15 1
    26   14   16 1
    27   14   25 1
    28   15   26 1
    29   16   17 2
    30   18   27 1
    31   18   28 1
@<TRIPOS>MOLECULE
CHEMBL253174__1
   28    31     0     0     0
SMALL
USER_CHARGES

@<TRIPOS>ATOM
      1 C1         -0.0167    1.3787    0.0096 C.ar      1 <0>        -0.0909
      2 C2          1.1649    2.1067    0.0022 C.ar      1 <0>        -0.1098
      3 C3          2.3916    1.4704   -0.0139 C.ar      1 <0>        -0.0612
      4 C4          2.4331    0.0834   -0.0222 C.ar      1 <0>        -0.1438
      5 C5          1.2211   -0.6608   -0.0127 C.ar      1 <0>        -0.0007
      6 C6          0.0021   -0.0041    0.0020 C.ar      1 <0>        -0.0792
      7 C7          1.3670   -2.1295   -0.0181 C.2       1 <0>         0.1404
      8 N1          0.5171   -2.9551   -0.5722 N.2       1 <0>        -0.4057
      9 S1          1.2089   -4.4832   -0.6083 S.3       1 <0>         0.1166
     10 C8          2.8472   -4.0589   -0.0837 C.2       1 <0>        -0.2435
     11 C9          4.0280   -4.6070   -0.2715 C.2       1 <0>         0.0295
     12 C10         5.1917   -3.8735    0.2673 C.2       1 <0>        -0.2628
     13 C11         5.0324   -2.6450    0.7687 C.2       1 <0>         0.2192
     14 C12         3.7398   -1.9142    0.8399 C.3       1 <0>        -0.0865
     15 C13         2.5280   -2.7944    0.6886 C.3       1 <0>        -0.0349
     16 C14         3.6845   -0.6951   -0.0385 C.2       1 <0>         0.4121
     17 O1          4.6267   -0.3674   -0.7293 O.2       1 <0>        -0.4161
     18 N2          6.1592   -2.0030    1.2608 N.pl3     1 <0>        -0.8614
     19 H1         -0.9630    1.8988    0.0260 H         1 <0>         0.1374
     20 H2          1.1252    3.1859    0.0088 H         1 <0>         0.1370
     21 H3          3.3060    2.0452   -0.0202 H         1 <0>         0.1394
     22 H4         -0.9214   -0.5641    0.0078 H         1 <0>         0.1416
     23 H5          4.1410   -5.5461   -0.7928 H         1 <0>         0.1431
     24 H6          6.1705   -4.3298    0.2562 H         1 <0>         0.1317
     25 H7          3.6855   -1.5216    1.8553 H         1 <0>         0.1191
     26 H8          2.1999   -3.0803    1.6880 H         1 <0>         0.1276
     27 H9          7.0213   -2.4467    1.2326 H         1 <0>         0.4057
     28 H10         6.0851   -1.1103    1.6331 H         1 <0>         0.3960
@<TRIPOS>BOND
     1    1    6 ar
     2    1    2 ar
     3    1   19 1
     4    2    3 ar
     5    2   20 1
     6    3    4 ar
     7    3   21 1
     8    4   16 1
     9    4    5 ar
    10    5    6 ar
    11    5    7 1
    12    6   22 1
    13    7   15 1
    14    7    8 2
    15    8    9 1
    16    9   10 1
    17   10   15 1
    18   10   11 2
    19   11   12 1
    20   11   23 1
    21   12   13 2
    22   12   24 1
    23   13   14 1
    24   13   18 1
    25   14   15 1
    26   14   16 1
    27   14   25 1
    28   15   26 1
    29   16   17 2
    30   18   27 1
    31   18   28 1
@<TRIPOS>MOLECULE
CHEMBL253174__2
   28    31     0     0     0
SMALL
USER_CHARGES

@<TRIPOS>ATOM
      1 C1         -0.0167    1.3787    0.0096 C.ar      1 <0>        -0.0908
      2 C2          1.1649    2.1067    0.0023 C.ar      1 <0>        -0.1099
      3 C3          2.3916    1.4706   -0.0145 C.ar      1 <0>        -0.0610
      4 C4          2.4332    0.0835   -0.0230 C.ar      1 <0>        -0.1439
      5 C5          1.2212   -0.6607   -0.0128 C.ar      1 <0>        -0.0006
      6 C6          0.0021   -0.0041    0.0020 C.ar      1 <0>        -0.0792
      7 C7          1.3673   -2.1292   -0.0167 C.2       1 <0>         0.1403
      8 N1          0.5302   -2.9571    0.5534 N.2       1 <0>        -0.4057
      9 S1          1.2256   -4.4838    0.5735 S.3       1 <0>         0.1165
     10 C8          2.8512   -4.0560    0.0127 C.2       1 <0>        -0.2434
     11 C9          4.0369   -4.6017    0.1743 C.2       1 <0>         0.0295
     12 C10         5.1864   -3.8668   -0.3924 C.2       1 <0>        -0.2628
     13 C11         5.0138   -2.6389   -0.8903 C.2       1 <0>         0.2192
     14 C12         3.7190   -1.9087   -0.9290 C.3       1 <0>        -0.0864
     15 C13         2.5123   -2.7916   -0.7515 C.3       1 <0>        -0.0349
     16 C14         3.6845   -0.6947   -0.0430 C.2       1 <0>         0.4120
     17 O1          4.6437   -0.3702    0.6254 O.2       1 <0>        -0.4162
     18 N2          6.1275   -1.9961   -1.4105 N.pl3     1 <0>        -0.8614
     19 H1         -0.9631    1.8988    0.0260 H         1 <0>         0.1374
     20 H2          1.1251    3.1860    0.0093 H         1 <0>         0.1370
     21 H3          3.3059    2.0454   -0.0211 H         1 <0>         0.1395
     22 H4         -0.9213   -0.5641    0.0079 H         1 <0>         0.1415
     23 H5          4.1637   -5.5397    0.6945 H         1 <0>         0.1431
     24 H6          6.1659   -4.3217   -0.4038 H         1 <0>         0.1316
     25 H7          3.6401   -1.5115   -1.9410 H         1 <0>         0.1193
     26 H8          2.1614   -3.0772   -1.7432 H         1 <0>         0.1277
     27 H9          6.9904   -2.4390   -1.4034 H         1 <0>         0.4056
     28 H10         6.0434   -1.1038   -1.7813 H         1 <0>         0.3960
@<TRIPOS>BOND
     1    1    6 ar
     2    1    2 ar
     3    1   19 1
     4    2    3 ar
     5    2   20 1
     6    3    4 ar
     7    3   21 1
     8    4   16 1
     9    4    5 ar
    10    5    6 ar
    11    5    7 1
    12    6   22 1
    13    7   15 1
    14    7    8 2
    15    8    9 1
    16    9   10 1
    17   10   15 1
    18   10   11 2
    19   11   12 1
    20   11   23 1
    21   12   13 2
    22   12   24 1
    23   13   14 1
    24   13   18 1
    25   14   15 1
    26   14   16 1
    27   14   25 1
    28   15   26 1
    29   16   17 2
    30   18   27 1
    31   18   28 1
@<TRIPOS>MOLECULE
CHEMBL253174__3
   28    31     0     0     0
SMALL
USER_CHARGES

@<TRIPOS>ATOM
      1 C1          0.2026    1.3818   -1.7563 C.ar      1 <0>        -0.0839
      2 C2          1.4110    2.0644   -1.7633 C.ar      1 <0>        -0.1137
      3 C3          2.5898    1.4217   -1.4499 C.ar      1 <0>        -0.0568
      4 C4          2.5700    0.0656   -1.1184 C.ar      1 <0>        -0.1483
      5 C5          1.3309   -0.6235   -1.1010 C.ar      1 <0>         0.0078
      6 C6          0.1552    0.0414   -1.4274 C.ar      1 <0>        -0.0853
      7 C7          1.3318   -2.0554   -0.7157 C.2       1 <0>         0.1470
      8 N1          0.3633   -2.8973   -0.9306 N.2       1 <0>        -0.4067
      9 S1          0.8297   -4.4116   -0.3745 S.3       1 <0>         0.1320
     10 C8          2.5541   -4.1285   -0.1459 C.2       1 <0>        -0.2436
     11 C9          3.6457   -4.8681   -0.0910 C.2       1 <0>         0.0244
     12 C10         4.9237   -4.1330    0.0861 C.2       1 <0>        -0.2721
     13 C11         4.9954   -2.8326   -0.2766 C.2       1 <0>         0.2095
     14 C12         3.7889   -2.1493   -0.8393 C.3       1 <0>        -0.0926
     15 C13         2.5607   -2.6106   -0.0278 C.3       1 <0>        -0.0515
     16 C14         3.8200   -0.6479   -0.7937 C.2       1 <0>         0.4160
     17 O1          4.8324   -0.0463   -0.5013 O.2       1 <0>        -0.4308
     18 N2          6.1840   -2.1335   -0.1270 N.pl3     1 <0>        -0.8563
     19 H1         -0.7089    1.9044   -2.0059 H         1 <0>         0.1386
     20 H2          1.4282    3.1138   -2.0182 H         1 <0>         0.1373
     21 H3          3.5236    1.9642   -1.4612 H         1 <0>         0.1422
     22 H4         -0.7875   -0.4854   -1.4234 H         1 <0>         0.1433
     23 H5          3.6116   -5.9447   -0.1698 H         1 <0>         0.1431
     24 H6          5.7873   -4.6322    0.5000 H         1 <0>         0.1315
     25 H7          3.6607   -2.4576   -1.8769 H         1 <0>         0.1293
     26 H8          2.6115   -2.2923    1.0134 H         1 <0>         0.1319
     27 H9          6.3264   -1.3084   -0.6168 H         1 <0>         0.4074
     28 H10         6.8729   -2.4696    0.4675 H         1 <0>         0.4003
@<TRIPOS>BOND
     1    1    6 ar
     2    1    2 ar
     3    1   19 1
     4    2    3 ar
     5    2   20 1
     6    3    4 ar
     7    3   21 1
     8    4   16 1
     9    4    5 ar
    10    5    6 ar
    11    5    7 1
    12    6   22 1
    13    7   15 1
    14    7    8 2
    15    8    9 1
    16    9   10 1
    17   10   15 1
    18   10   11 2
    19   11   12 1
    20   11   23 1
    21   12   13 2
    22   12   24 1
    23   13   14 1
    24   13   18 1
    25   14   15 1
    26   14   16 1
    27   14   25 1
    28   15   26 1
    29   16   17 2
    30   18   27 1
    31   18   28 1
@<TRIPOS>MOLECULE
CHEMBL234655
   59    63     0     0     0
SMALL
USER_CHARGES

@<TRIPOS>ATOM
      1 C1          0.4592    0.5522    3.4877 C.ar      1 <0>        -0.0325
      2 C2          1.6424    1.2675    3.4902 C.ar      1 <0>        -0.1612
      3 C3          2.7740    0.7386    2.8973 C.ar      1 <0>         0.1758
      4 C4          2.7190   -0.5206    2.2957 C.ar      1 <0>        -0.0879
      5 C5          1.5224   -1.2357    2.2973 C.ar      1 <0>        -0.0088
      6 C6          0.3995   -0.6963    2.8927 C.ar      1 <0>        -0.1207
      7 Br1        -1.2242   -1.6656    2.8954 Br        1 <0>        -0.0300
      8 C7          3.9274   -1.0939    1.6579 C.ar      1 <0>         0.4377
      9 N1          5.0127   -0.3471    1.5911 N.ar      1 <0>        -0.5109
     10 C8          6.1348   -0.8082    1.0275 C.ar      1 <0>         0.3329
     11 C9          6.1388   -2.1237    0.4986 C.ar      1 <0>        -0.0511
     12 C10         4.9060   -2.9056    0.6010 C.ar      1 <0>         0.5046
     13 N2          3.8624   -2.3369    1.1874 N.ar      1 <0>        -0.5691
     14 N3          4.8342   -4.1931    0.1083 N.pl3     1 <0>        -0.5977
     15 C11         3.6230   -4.8688    0.1077 C.ar      1 <0>         0.2542
     16 C12         2.4225   -4.1887   -0.0944 C.ar      1 <0>        -0.1804
     17 C13         1.2394   -4.8958   -0.0879 C.ar      1 <0>         0.1473
     18 N4          1.2240   -6.2030    0.1058 N.ar      1 <0>        -0.4926
     19 C14         2.3269   -6.8945    0.3014 C.ar      1 <0>         0.1625
     20 C15         3.5708   -6.2625    0.3052 C.ar      1 <0>        -0.2254
     21 C16         4.8072   -7.0381    0.5181 C.2       1 <0>         0.5714
     22 O1          5.8900   -6.4912    0.4341 O.2       1 <0>        -0.5381
     23 N5          4.7367   -8.3529    0.8056 N.am      1 <0>        -0.7201
     24 C17         5.9648   -9.1233    1.0170 C.3       1 <0>         0.1222
     25 C18         5.6071  -10.5785    1.3258 C.3       1 <0>        -0.1504
     26 C19         6.8897  -11.3830    1.5466 C.3       1 <0>         0.1294
     27 N6          6.5472  -12.7764    1.8423 N.am      1 <0>        -0.6219
     28 C20         6.3080  -13.3020    3.1916 C.3       1 <0>         0.1000
     29 C21         5.5731  -14.6452    2.9864 C.3       1 <0>        -0.1329
     30 C22         6.0451  -15.0498    1.5706 C.3       1 <0>        -0.1568
     31 C23         6.4061  -13.7366    0.9122 C.2       1 <0>         0.5155
     32 O2          6.5498  -13.5742   -0.2811 O.2       1 <0>        -0.5286
     33 N7          7.2389   -2.6105   -0.0675 N.ar      1 <0>        -0.3879
     34 C24         8.3200   -1.8631   -0.1321 C.ar      1 <0>         0.0533
     35 C25         8.3214   -0.5679    0.3868 C.ar      1 <0>         0.1330
     36 N8          7.2435   -0.0671    0.9510 N.ar      1 <0>        -0.4206
     37 F1          3.9297    1.4382    2.8996 F         1 <0>        -0.0985
     38 H1         -0.4211    0.9674    3.9559 H         1 <0>         0.1495
     39 H2          1.6827    2.2412    3.9556 H         1 <0>         0.1544
     40 H3          1.4736   -2.2097    1.8333 H         1 <0>         0.1557
     41 H4          5.6308   -4.6252   -0.2374 H         1 <0>         0.4485
     42 H5          2.4197   -3.1205   -0.2536 H         1 <0>         0.1536
     43 H6          0.3079   -4.3720   -0.2437 H         1 <0>         0.1693
     44 H7          2.2687   -7.9618    0.4561 H         1 <0>         0.1623
     45 H8          3.8730   -8.7891    0.8726 H         1 <0>         0.4026
     46 H9          6.5784   -9.0831    0.1170 H         1 <0>         0.0760
     47 H10         6.5197   -8.7000    1.8543 H         1 <0>         0.0740
     48 H11         4.9935  -10.6187    2.2258 H         1 <0>         0.0743
     49 H12         5.0523  -11.0018    0.4886 H         1 <0>         0.0769
     50 H13         7.5033  -11.3428    0.6466 H         1 <0>         0.0876
     51 H14         7.4445  -10.9597    2.3839 H         1 <0>         0.0842
     52 H15         7.2550  -13.4649    3.7062 H         1 <0>         0.0743
     53 H16         5.6829  -12.6129    3.7594 H         1 <0>         0.0794
     54 H17         5.8885  -15.3796    3.7275 H         1 <0>         0.0927
     55 H18         4.4923  -14.5064    3.0124 H         1 <0>         0.0831
     56 H19         6.9159  -15.7027    1.6309 H         1 <0>         0.1060
     57 H20         5.2381  -15.5381    1.0245 H         1 <0>         0.1029
     58 H21         9.2151   -2.2562   -0.5911 H         1 <0>         0.1872
     59 H22         9.2183    0.0306    0.3250 H         1 <0>         0.1898
@<TRIPOS>BOND
     1    1    6 ar
     2    1    2 ar
     3    1   38 1
     4    2    3 ar
     5    2   39 1
     6    3    4 ar
     7    3   37 1
     8    4    5 ar
     9    4    8 1
    10    5    6 ar
    11    5   40 1
    12    6    7 1
    13    8   13 ar
    14    8    9 ar
    15    9   10 ar
    16   10   36 ar
    17   10   11 ar
    18   11   12 ar
    19   11   33 ar
    20   12   13 ar
    21   12   14 1
    22   14   15 1
    23   14   41 1
    24   15   20 ar
    25   15   16 ar
    26   16   17 ar
    27   16   42 1
    28   17   18 ar
    29   17   43 1
    30   18   19 ar
    31   19   20 ar
    32   19   44 1
    33   20   21 1
    34   21   22 2
    35   21   23 am
    36   23   24 1
    37   23   45 1
    38   24   25 1
    39   24   46 1
    40   24   47 1
    41   25   26 1
    42   25   48 1
    43   25   49 1
    44   26   27 1
    45   26   50 1
    46   26   51 1
    47   27   31 am
    48   27   28 1
    49   28   29 1
    50   28   52 1
    51   28   53 1
    52   29   30 1
    53   29   54 1
    54   29   55 1
    55   30   31 1
    56   30   56 1
    57   30   57 1
    58   31   32 2
    59   33   34 ar
    60   34   35 ar
    61   34   58 1
    62   35   36 ar
    63   35   59 1
@<TRIPOS>MOLECULE
CHEMBL364757
   26    28     0     0     0
SMALL
USER_CHARGES

@<TRIPOS>ATOM
      1 C1         -0.0166    1.3699    0.0096 C.ar      1 <0>        -0.0760
      2 C2          1.1572    2.1045    0.0023 C.ar      1 <0>        -0.1157
      3 C3          2.3694    1.4373   -0.0128 C.ar      1 <0>        -0.0396
      4 C4          2.3887    0.0627   -0.0203 C.ar      1 <0>        -0.1566
      5 C5          1.2179   -0.7095   -0.0133 C.ar      1 <0>         0.1210
      6 C6          0.0021   -0.0041    0.0020 C.ar      1 <0>        -0.1153
      7 N1          1.3955   -2.0811   -0.0223 N.pl3     1 <0>        -0.6064
      8 C7          2.6545   -2.6113   -0.0367 C.2       1 <0>         0.2665
      9 C8          3.0386   -3.9533   -0.0474 C.2       1 <0>        -0.1483
     10 C9          4.4278   -4.3004   -0.0620 C.1       1 <0>         0.2743
     11 N2          5.5298   -4.5757   -0.0735 N.1       1 <0>        -0.4103
     12 C10         2.0145   -5.0127   -0.0437 C.ar      1 <0>         0.2922
     13 C11         2.3869   -6.3653   -0.0485 C.ar      1 <0>        -0.2265
     14 C12         1.3988   -7.3132   -0.0449 C.ar      1 <0>         0.1796
     15 N3          0.1288   -6.9302   -0.0369 N.ar      1 <0>        -0.5202
     16 C13        -0.1986   -5.6518   -0.0325 C.ar      1 <0>         0.3840
     17 N4          0.7156   -4.7020   -0.0301 N.ar      1 <0>        -0.5516
     18 Cl1        -1.8773   -5.2093   -0.0221 Cl        1 <0>         0.0271
     19 S1          3.6842   -1.1528   -0.0391 S.3       1 <0>         0.0885
     20 H1         -0.9648    1.8866    0.0260 H         1 <0>         0.1406
     21 H2          1.1270    3.1841    0.0080 H         1 <0>         0.1442
     22 H3          3.2952    1.9934   -0.0190 H         1 <0>         0.1420
     23 H4         -0.9301   -0.5494    0.0083 H         1 <0>         0.1359
     24 H5          0.6237   -2.6685   -0.0181 H         1 <0>         0.4344
     25 H6          3.4281   -6.6521   -0.0554 H         1 <0>         0.1542
     26 H7          1.6512   -8.3633   -0.0488 H         1 <0>         0.1819
@<TRIPOS>BOND
     1    1    6 ar
     2    1    2 ar
     3    1   20 1
     4    2    3 ar
     5    2   21 1
     6    3    4 ar
     7    3   22 1
     8    4   19 1
     9    4    5 ar
    10    5    6 ar
    11    5    7 1
    12    6   23 1
    13    7    8 1
    14    7   24 1
    15    8    9 2
    16    8   19 1
    17    9   10 1
    18    9   12 1
    19   10   11 3
    20   12   17 ar
    21   12   13 ar
    22   13   14 ar
    23   13   25 1
    24   14   15 ar
    25   14   26 1
    26   15   16 ar
    27   16   17 ar
    28   16   18 1
@<TRIPOS>MOLECULE
CHEMBL364757__1
   26    28     0     0     0
SMALL
USER_CHARGES

@<TRIPOS>ATOM
      1 C1         -0.0166    1.3699    0.0096 C.ar      1 <0>        -0.0796
      2 C2          1.1572    2.1045    0.0023 C.ar      1 <0>        -0.1160
      3 C3          2.3694    1.4373   -0.0128 C.ar      1 <0>        -0.0386
      4 C4          2.3887    0.0627   -0.0203 C.ar      1 <0>        -0.1861
      5 C5          1.2179   -0.7095   -0.0133 C.ar      1 <0>         0.1156
      6 C6          0.0021   -0.0041    0.0020 C.ar      1 <0>        -0.1182
      7 N1          1.3955   -2.0811   -0.0223 N.pl3     1 <0>        -0.6246
      8 C7          2.6545   -2.6113   -0.0367 C.2       1 <0>         0.2460
      9 C8          3.0386   -3.9533   -0.0474 C.2       1 <0>        -0.1470
     10 C9          2.0433   -4.9829   -0.0438 C.1       1 <0>         0.2703
     11 N2          1.2537   -5.7996   -0.0410 N.1       1 <0>        -0.4208
     12 C10         4.4680   -4.3104   -0.0624 C.ar      1 <0>         0.2876
     13 C11         4.8675   -5.6552   -0.0791 C.ar      1 <0>        -0.2272
     14 C12         6.2074   -5.9368   -0.0926 C.ar      1 <0>         0.1761
     15 N3          7.0825   -4.9399   -0.0895 N.ar      1 <0>        -0.5210
     16 C13         6.6842   -3.6819   -0.0737 C.ar      1 <0>         0.3843
     17 N4          5.4058   -3.3596   -0.0659 N.ar      1 <0>        -0.5268
     18 Cl1         7.8745   -2.4183   -0.0704 Cl        1 <0>         0.0287
     19 S1          3.6842   -1.1528   -0.0391 S.3       1 <0>         0.1948
     20 H1         -0.9648    1.8866    0.0260 H         1 <0>         0.1385
     21 H2          1.1270    3.1841    0.0080 H         1 <0>         0.1426
     22 H3          3.2952    1.9934   -0.0190 H         1 <0>         0.1419
     23 H4         -0.9301   -0.5494    0.0083 H         1 <0>         0.1317
     24 H5          0.6237   -2.6685   -0.0181 H         1 <0>         0.4174
     25 H6          4.1356   -6.4494   -0.0809 H         1 <0>         0.1506
     26 H7          6.5487   -6.9614   -0.1052 H         1 <0>         0.1799
@<TRIPOS>BOND
     1    1    6 ar
     2    1    2 ar
     3    1   20 1
     4    2    3 ar
     5    2   21 1
     6    3    4 ar
     7    3   22 1
     8    4   19 1
     9    4    5 ar
    10    5    6 ar
    11    5    7 1
    12    6   23 1
    13    7    8 1
    14    7   24 1
    15    8    9 2
    16    8   19 1
    17    9   10 1
    18    9   12 1
    19   10   11 3
    20   12   17 ar
    21   12   13 ar
    22   13   14 ar
    23   13   25 1
    24   14   15 ar
    25   14   26 1
    26   15   16 ar
    27   16   17 ar
    28   16   18 1
@<TRIPOS>MOLECULE
CHEMBL551024
   60    64     0     0     0
SMALL
USER_CHARGES

@<TRIPOS>ATOM
      1 C1         -0.0167    1.3821   -0.0124 C.ar      1 <0>        -0.0966
      2 C2          1.1686    2.0901   -0.0051 C.ar      1 <0>        -0.1219
      3 C3          2.3865    1.4111   -0.0073 C.ar      1 <0>         0.0063
      4 C4          2.4028    0.0179   -0.0170 C.ar      1 <0>        -0.1070
      5 C5          1.2081   -0.6850   -0.0243 C.ar      1 <0>         0.1624
      6 C6         -0.0010    0.0003   -0.0221 C.ar      1 <0>        -0.1412
      7 N1          1.2194   -2.0844   -0.0345 N.am      1 <0>        -0.6783
      8 C7          2.1807   -2.7457   -0.7092 C.2       1 <0>         0.7092
      9 O1          3.0846   -2.1293   -1.2399 O.2       1 <0>        -0.5499
     10 N2          2.1402   -4.0900   -0.7955 N.am      1 <0>        -0.6786
     11 C8          3.1879   -4.7840   -1.4141 C.ar      1 <0>         0.1641
     12 C9          3.8463   -4.2254   -2.5008 C.ar      1 <0>        -0.0952
     13 C10         4.8797   -4.9118   -3.1086 C.ar      1 <0>        -0.0577
     14 C11         5.2590   -6.1549   -2.6365 C.ar      1 <0>        -0.1700
     15 C12         4.6059   -6.7159   -1.5546 C.ar      1 <0>        -0.0836
     16 C13         3.5746   -6.0316   -0.9373 C.ar      1 <0>         0.0752
     17 F1          2.9400   -6.5770    0.1234 F         1 <0>        -0.1263
     18 C14         6.3864   -6.9003   -3.3031 C.3       1 <0>         0.5122
     19 F2          7.5975   -6.5575   -2.6922 F         1 <0>        -0.1724
     20 F3          6.1739   -8.2773   -3.1772 F         1 <0>        -0.1732
     21 F4          6.4346   -6.5579   -4.6587 F         1 <0>        -0.1729
     22 C15         3.6602    2.1692    0.0001 C.2       1 <0>        -0.1242
     23 C16         4.7143    1.9744    0.8289 C.2       1 <0>         0.0922
     24 N3          5.7058    2.8663    0.5329 N.pl3     1 <0>        -0.5699
     25 H1          6.5584    2.9196    0.9923 H         1 <0>         0.4279
     26 C17         5.3229    3.6778   -0.5093 C.ar      1 <0>         0.3000
     27 C18         4.0301    3.2765   -0.8952 C.ar      1 <0>        -0.1330
     28 C19         3.3902    3.9301   -1.9454 C.ar      1 <0>         0.0004
     29 C20         4.0705    4.9677   -2.5815 C.ar      1 <0>        -0.1596
     30 C21         5.3531    5.3073   -2.1451 C.ar      1 <0>         0.1610
     31 N4          5.9255    4.6755   -1.1445 N.ar      1 <0>        -0.4892
     32 C22         3.4404    5.7011   -3.7072 C.ar      1 <0>         0.0264
     33 C23         2.1585    5.3602   -4.1336 C.ar      1 <0>        -0.1185
     34 C24         1.5773    6.0456   -5.1811 C.ar      1 <0>        -0.0815
     35 C25         2.2651    7.0693   -5.8074 C.ar      1 <0>        -0.1850
     36 C26         3.5379    7.4119   -5.3883 C.ar      1 <0>        -0.0812
     37 C27         4.1264    6.7370   -4.3380 C.ar      1 <0>        -0.1183
     38 C28         1.6255    7.8137   -6.9510 C.3       1 <0>         0.0491
     39 N5          0.8778    8.9653   -6.4285 N.4       1 <0>        -0.6375
     40 H2         -0.9590    1.9098   -0.0061 H         1 <0>         0.1297
     41 H3          1.1524    3.1699    0.0021 H         1 <0>         0.1219
     42 H4          3.3435   -0.5128   -0.0191 H         1 <0>         0.1439
     43 H5         -0.9311   -0.5487   -0.0278 H         1 <0>         0.1279
     44 H6          0.5354   -2.5785    0.4440 H         1 <0>         0.4128
     45 H7          1.3854   -4.5770   -0.4294 H         1 <0>         0.4164
     46 H8          3.5508   -3.2548   -2.8711 H         1 <0>         0.1636
     47 H9          5.3919   -4.4770   -3.9542 H         1 <0>         0.1488
     48 H10         4.9042   -7.6872   -1.1884 H         1 <0>         0.1563
     49 H11         4.7631    1.2268    1.6068 H         1 <0>         0.1864
     50 H12         2.3974    3.6417   -2.2579 H         1 <0>         0.1387
     51 H13         5.8829    6.1105   -2.6355 H         1 <0>         0.1638
     52 H14         1.6207    4.5608   -3.6455 H         1 <0>         0.1367
     53 H15         0.5838    5.7819   -5.5126 H         1 <0>         0.1331
     54 H16         4.0705    8.2120   -5.8808 H         1 <0>         0.1340
     55 H17         5.1184    7.0085   -4.0083 H         1 <0>         0.1390
     56 H18         2.3989    8.1628   -7.6352 H         1 <0>         0.1391
     57 H19         0.9441    7.1487   -7.4817 H         1 <0>         0.1387
     58 H20         0.1619    8.6421   -5.7952 H         1 <0>         0.4341
     59 H21         1.5085    9.5809   -5.9373 H         1 <0>         0.4344
     60 H22         0.4496    9.4637   -7.1942 H         1 <0>         0.4369
@<TRIPOS>BOND
     1    1    6 ar
     2    1    2 ar
     3    1   40 1
     4    2    3 ar
     5    2   41 1
     6    3    4 ar
     7    3   22 1
     8    4    5 ar
     9    4   42 1
    10    5    6 ar
    11    5    7 1
    12    6   43 1
    13    7    8 am
    14    7   44 1
    15    8    9 2
    16    8   10 am
    17   10   11 1
    18   10   45 1
    19   11   16 ar
    20   11   12 ar
    21   12   13 ar
    22   12   46 1
    23   13   14 ar
    24   13   47 1
    25   14   15 ar
    26   14   18 1
    27   15   16 ar
    28   15   48 1
    29   16   17 1
    30   18   19 1
    31   18   20 1
    32   18   21 1
    33   22   27 1
    34   22   23 2
    35   23   24 1
    36   23   49 1
    37   24   25 1
    38   24   26 1
    39   26   31 ar
    40   26   27 ar
    41   27   28 ar
    42   28   29 ar
    43   28   50 1
    44   29   30 ar
    45   29   32 1
    46   30   31 ar
    47   30   51 1
    48   32   37 ar
    49   32   33 ar
    50   33   34 ar
    51   33   52 1
    52   34   35 ar
    53   34   53 1
    54   35   36 ar
    55   35   38 1
    56   36   37 ar
    57   36   54 1
    58   37   55 1
    59   38   39 1
    60   38   56 1
    61   38   57 1
    62   39   58 1
    63   39   59 1
    64   39   60 1
@<TRIPOS>MOLECULE
CHEMBL10
   43    46     0     0     0
SMALL
USER_CHARGES

@<TRIPOS>ATOM
      1 C1          0.0458    2.4645   -0.3714 C.3       1 <0>        -0.4977
      2 S1          0.1034    0.6635   -0.1624 S.o       1 <0>         1.3328
      3 O1          0.9995    0.3374    0.8912 O.2       1 <0>        -0.8522
      4 C2          0.9248    0.0922   -1.6127 C.ar      1 <0>        -0.4531
      5 C3          0.1894   -0.2245   -2.7411 C.ar      1 <0>        -0.0385
      6 C4          0.8263   -0.6720   -3.8801 C.ar      1 <0>        -0.0921
      7 C5          2.2157   -0.8050   -3.8925 C.ar      1 <0>         0.0171
      8 C6          2.9515   -0.4838   -2.7508 C.ar      1 <0>        -0.1253
      9 C7          2.3027   -0.0324   -1.6200 C.ar      1 <0>        -0.0497
     10 C8          2.9049   -1.2844   -5.1094 C.2       1 <0>         0.2582
     11 N1          4.2515   -1.4590   -5.2384 N.pl3     1 <0>        -0.5486
     12 H1          4.9216   -1.2936   -4.5568 H         1 <0>         0.4252
     13 C9          4.4814   -1.9147   -6.5171 C.2       1 <0>         0.0337
     14 C10         3.2416   -2.0017   -7.1294 C.2       1 <0>         0.0807
     15 N2          2.3171   -1.6154   -6.2370 N.2       1 <0>        -0.4488
     16 C11         2.9826   -2.4473   -8.5186 C.ar      1 <0>        -0.0206
     17 C12         3.6496   -3.5590   -9.0325 C.ar      1 <0>        -0.0694
     18 C13         3.4051   -3.9700  -10.3265 C.ar      1 <0>        -0.1511
     19 C14         2.4988   -3.2799  -11.1154 C.ar      1 <0>         0.1060
     20 C15         1.8337   -2.1747  -10.6093 C.ar      1 <0>        -0.1526
     21 C16         2.0668   -1.7598   -9.3145 C.ar      1 <0>        -0.0599
     22 F1          2.2634   -3.6856  -12.3824 F         1 <0>        -0.1371
     23 C17         5.7881   -2.2443   -7.1163 C.ar      1 <0>         0.0226
     24 C18         6.1399   -1.7662   -8.3862 C.ar      1 <0>        -0.1423
     25 C19         7.3716   -2.0992   -8.9074 C.ar      1 <0>         0.1081
     26 N3          8.2131   -2.8565   -8.2286 N.ar      1 <0>        -0.4784
     27 C20         7.9224   -3.3278   -7.0303 C.ar      1 <0>         0.1071
     28 C21         6.7158   -3.0398   -6.4296 C.ar      1 <0>        -0.1652
     29 H2          1.0609    2.8540   -0.4489 H         1 <0>         0.0810
     30 H3         -0.5069    2.7075   -1.2790 H         1 <0>         0.1130
     31 H4         -0.4514    2.9143    0.4881 H         1 <0>         0.1088
     32 H5         -0.8856   -0.1215   -2.7301 H         1 <0>         0.1470
     33 H6          0.2512   -0.9192   -4.7602 H         1 <0>         0.1462
     34 H7          4.0268   -0.5845   -2.7539 H         1 <0>         0.1202
     35 H8          2.8713    0.2203   -0.7373 H         1 <0>         0.1322
     36 H9          4.3566   -4.0971   -8.4186 H         1 <0>         0.1287
     37 H10         3.9211   -4.8308  -10.7253 H         1 <0>         0.1387
     38 H11         1.1282   -1.6400  -11.2280 H         1 <0>         0.1401
     39 H12         1.5446   -0.9009   -8.9194 H         1 <0>         0.1377
     40 H13         5.4562   -1.1467   -8.9476 H         1 <0>         0.1400
     41 H14         7.6520   -1.7358   -9.8850 H         1 <0>         0.1626
     42 H15         8.6418   -3.9441   -6.5116 H         1 <0>         0.1610
     43 H16         6.4868   -3.4248   -5.4469 H         1 <0>         0.1340
@<TRIPOS>BOND
     1    1    2 1
     2    1   29 1
     3    1   30 1
     4    1   31 1
     5    2    3 2
     6    2    4 1
     7    4    9 ar
     8    4    5 ar
     9    5    6 ar
    10    5   32 1
    11    6    7 ar
    12    6   33 1
    13    7    8 ar
    14    7   10 1
    15    8    9 ar
    16    8   34 1
    17    9   35 1
    18   10   15 2
    19   10   11 1
    20   11   12 1
    21   11   13 1
    22   13   14 2
    23   13   23 1
    24   14   15 1
    25   14   16 1
    26   16   21 ar
    27   16   17 ar
    28   17   18 ar
    29   17   36 1
    30   18   19 ar
    31   18   37 1
    32   19   20 ar
    33   19   22 1
    34   20   21 ar
    35   20   38 1
    36   21   39 1
    37   23   28 ar
    38   23   24 ar
    39   24   25 ar
    40   24   40 1
    41   25   26 ar
    42   25   41 1
    43   26   27 ar
    44   27   28 ar
    45   27   42 1
    46   28   43 1
@<TRIPOS>MOLECULE
CHEMBL10__1
   43    46     0     0     0
SMALL
USER_CHARGES

@<TRIPOS>ATOM
      1 C1         -0.0225    1.8097    0.0120 C.3       1 <0>        -0.4978
      2 S1          0.0021   -0.0041    0.0020 S.o       1 <0>         1.3330
      3 O1          0.8678   -0.4717    1.0272 O.2       1 <0>        -0.8523
      4 C2          0.8484   -0.4107   -1.4889 C.ar      1 <0>        -0.4536
      5 C3          0.1351   -0.5750   -2.6630 C.ar      1 <0>        -0.0382
      6 C4          0.7916   -0.8934   -3.8338 C.ar      1 <0>        -0.0929
      7 C5          2.1786   -1.0493   -3.8323 C.ar      1 <0>         0.0182
      8 C6          2.8923   -0.8818   -2.6445 C.ar      1 <0>        -0.1256
      9 C7          2.2241   -0.5587   -1.4816 C.ar      1 <0>        -0.0496
     10 C8          2.8887   -1.3910   -5.0832 C.2       1 <0>         0.2544
     11 N1          2.3233   -1.5718   -6.2543 N.2       1 <0>        -0.4444
     12 H1          4.8954   -1.4843   -4.4969 H         1 <0>         0.4256
     13 C9          3.2639   -1.8686   -7.1660 C.2       1 <0>         0.0603
     14 C10         4.4902   -1.8725   -6.5211 C.2       1 <0>         0.0563
     15 N2          4.2381   -1.5631   -5.2060 N.pl3     1 <0>        -0.5504
     16 C11         5.8073   -2.1482   -7.1276 C.ar      1 <0>        -0.0414
     17 C12         5.9636   -3.2233   -8.0058 C.ar      1 <0>        -0.0561
     18 C13         7.1963   -3.4757   -8.5698 C.ar      1 <0>        -0.1472
     19 C14         8.2792   -2.6654   -8.2665 C.ar      1 <0>         0.1133
     20 C15         8.1303   -1.5976   -7.3955 C.ar      1 <0>        -0.1493
     21 C16         6.9010   -1.3317   -6.8303 C.ar      1 <0>        -0.0774
     22 F1          9.4847   -2.9178   -8.8217 F         1 <0>        -0.1332
     23 C17         3.0319   -2.1430   -8.6023 C.ar      1 <0>         0.0392
     24 C18         3.9631   -1.7479   -9.5694 C.ar      1 <0>        -0.1585
     25 C19         3.7070   -2.0235  -10.8960 C.ar      1 <0>         0.1019
     26 N3          2.6028   -2.6496  -11.2572 N.ar      1 <0>        -0.4834
     27 C20         1.6992   -3.0391  -10.3777 C.ar      1 <0>         0.1010
     28 C21         1.8781   -2.8096   -9.0298 C.ar      1 <0>        -0.1460
     29 H2          1.0001    2.1870    0.0043 H         1 <0>         0.0809
     30 H3         -0.5497    2.1708   -0.8711 H         1 <0>         0.1130
     31 H4         -0.5327    2.1613    0.9088 H         1 <0>         0.1087
     32 H5         -0.9381   -0.4540   -2.6628 H         1 <0>         0.1469
     33 H6          0.2336   -1.0220   -4.7495 H         1 <0>         0.1458
     34 H7          3.9656   -1.0014   -2.6366 H         1 <0>         0.1204
     35 H8          2.7755   -0.4248   -0.5627 H         1 <0>         0.1321
     36 H9          5.1207   -3.8557   -8.2423 H         1 <0>         0.1370
     37 H10         7.3183   -4.3065   -9.2489 H         1 <0>         0.1442
     38 H11         8.9777   -0.9698   -7.1626 H         1 <0>         0.1423
     39 H12         6.7850   -0.4964   -6.1555 H         1 <0>         0.1322
     40 H13         4.8685   -1.2345   -9.2810 H         1 <0>         0.1339
     41 H14         4.4196   -1.7226  -11.6497 H         1 <0>         0.1576
     42 H15         0.8096   -3.5482  -10.7179 H         1 <0>         0.1591
     43 H16         1.1369   -3.1356   -8.3152 H         1 <0>         0.1398
@<TRIPOS>BOND
     1    1    2 1
     2    1   29 1
     3    1   30 1
     4    1   31 1
     5    2    3 2
     6    2    4 1
     7    4    9 ar
     8    4    5 ar
     9    5    6 ar
    10    5   32 1
    11    6    7 ar
    12    6   33 1
    13    7    8 ar
    14    7   10 1
    15    8    9 ar
    16    8   34 1
    17    9   35 1
    18   10   11 2
    19   10   15 1
    20   11   13 1
    21   12   15 1
    22   13   23 1
    23   13   14 2
    24   14   16 1
    25   14   15 1
    26   16   21 ar
    27   16   17 ar
    28   17   18 ar
    29   17   36 1
    30   18   19 ar
    31   18   37 1
    32   19   20 ar
    33   19   22 1
    34   20   21 ar
    35   20   38 1
    36   21   39 1
    37   23   28 ar
    38   23   24 ar
    39   24   25 ar
    40   24   40 1
    41   25   26 ar
    42   25   41 1
    43   26   27 ar
    44   27   28 ar
    45   27   42 1
    46   28   43 1
@<TRIPOS>MOLECULE
CHEMBL10__2
   43    46     0     0     0
SMALL
USER_CHARGES

@<TRIPOS>ATOM
      1 C1         -0.4050    2.4556    0.1422 C.3       1 <0>        -0.4979
      2 S1         -0.2077    0.6584   -0.0059 S.o       1 <0>         1.3317
      3 O1          0.3613    0.1442    1.1904 O.2       1 <0>        -0.8499
      4 C2         -1.8595    0.0455    0.0099 C.ar      1 <0>        -0.4534
      5 C3         -2.4611   -0.2822    1.2120 C.ar      1 <0>        -0.0508
      6 C4         -3.7543   -0.7622    1.2314 C.ar      1 <0>        -0.0896
      7 C5         -4.4559   -0.9170    0.0348 C.ar      1 <0>         0.0170
      8 C6         -3.8432   -0.5846   -1.1744 C.ar      1 <0>        -0.1278
      9 C7         -2.5513   -0.1007   -1.1794 C.ar      1 <0>        -0.0373
     10 C8         -5.8420   -1.4314    0.0480 C.2       1 <0>         0.2585
     11 N1         -6.6222   -1.6295   -1.0531 N.pl3     1 <0>        -0.5477
     12 H1         -6.3711   -1.4610   -1.9748 H         1 <0>         0.4255
     13 C9         -7.8328   -2.1142   -0.6113 C.2       1 <0>         0.0339
     14 C10        -7.7412   -2.1941    0.7688 C.2       1 <0>         0.0806
     15 N2         -6.5162   -1.7757    1.1219 N.2       1 <0>        -0.4506
     16 C11        -8.8034   -2.6633    1.6892 C.ar      1 <0>        -0.0211
     17 C12        -9.5537   -3.7953    1.3724 C.ar      1 <0>        -0.0692
     18 C13       -10.5416   -4.2282    2.2325 C.ar      1 <0>        -0.1511
     19 C14       -10.7891   -3.5400    3.4094 C.ar      1 <0>         0.1061
     20 C15       -10.0462   -2.4147    3.7286 C.ar      1 <0>        -0.1526
     21 C16        -9.0521   -1.9776    2.8778 C.ar      1 <0>        -0.0602
     22 F1        -11.7582   -3.9672    4.2481 F         1 <0>        -0.1370
     23 C17        -8.9963   -2.4760   -1.4423 C.ar      1 <0>         0.0231
     24 C18       -10.2836   -2.0289   -1.1137 C.ar      1 <0>        -0.1425
     25 C19       -11.3420   -2.3914   -1.9187 C.ar      1 <0>         0.1082
     26 N3        -11.1558   -3.1480   -2.9842 N.ar      1 <0>        -0.4785
     27 C20        -9.9612   -3.5907   -3.3299 C.ar      1 <0>         0.1070
     28 C21        -8.8453   -3.2720   -2.5862 C.ar      1 <0>        -0.1650
     29 H2          0.5762    2.9302    0.1415 H         1 <0>         0.1087
     30 H3         -0.9891    2.8276   -0.6995 H         1 <0>         0.1119
     31 H4         -0.9207    2.6889    1.0737 H         1 <0>         0.0820
     32 H5         -1.9169   -0.1623    2.1372 H         1 <0>         0.1342
     33 H6         -4.2226   -1.0180    2.1704 H         1 <0>         0.1414
     34 H7         -4.3807   -0.7021   -2.1038 H         1 <0>         0.1251
     35 H8         -2.0775    0.1608   -2.1140 H         1 <0>         0.1448
     36 H9         -9.3620   -4.3319    0.4550 H         1 <0>         0.1291
     37 H10       -11.1232   -5.1048    1.9880 H         1 <0>         0.1389
     38 H11       -10.2428   -1.8816    4.6470 H         1 <0>         0.1399
     39 H12        -8.4706   -1.1030    3.1296 H         1 <0>         0.1371
     40 H13       -10.4436   -1.4102   -0.2431 H         1 <0>         0.1397
     41 H14       -12.3377   -2.0521   -1.6741 H         1 <0>         0.1624
     42 H15        -9.8562   -4.2076   -4.2101 H         1 <0>         0.1610
     43 H16        -7.8704   -3.6336   -2.8779 H         1 <0>         0.1345
@<TRIPOS>BOND
     1    1    2 1
     2    1   29 1
     3    1   30 1
     4    1   31 1
     5    2    3 2
     6    2    4 1
     7    4    9 ar
     8    4    5 ar
     9    5    6 ar
    10    5   32 1
    11    6    7 ar
    12    6   33 1
    13    7    8 ar
    14    7   10 1
    15    8    9 ar
    16    8   34 1
    17    9   35 1
    18   10   15 2
    19   10   11 1
    20   11   12 1
    21   11   13 1
    22   13   14 2
    23   13   23 1
    24   14   15 1
    25   14   16 1
    26   16   21 ar
    27   16   17 ar
    28   17   18 ar
    29   17   36 1
    30   18   19 ar
    31   18   37 1
    32   19   20 ar
    33   19   22 1
    34   20   21 ar
    35   20   38 1
    36   21   39 1
    37   23   28 ar
    38   23   24 ar
    39   24   25 ar
    40   24   40 1
    41   25   26 ar
    42   25   41 1
    43   26   27 ar
    44   27   28 ar
    45   27   42 1
    46   28   43 1
@<TRIPOS>MOLECULE
CHEMBL10__3
   43    46     0     0     0
SMALL
USER_CHARGES

@<TRIPOS>ATOM
      1 C1         -0.0225    1.8097    0.0120 C.3       1 <0>        -0.4980
      2 S1          0.0021   -0.0041    0.0020 S.o       1 <0>         1.3317
      3 O1          0.4928   -0.4780    1.2486 O.2       1 <0>        -0.8500
      4 C2         -1.7016   -0.4536    0.0159 C.ar      1 <0>        -0.4538
      5 C3         -2.3575   -0.6301    1.2212 C.ar      1 <0>        -0.0505
      6 C4         -3.6913   -0.9821    1.2391 C.ar      1 <0>        -0.0904
      7 C5         -4.3792   -1.1595    0.0377 C.ar      1 <0>         0.0181
      8 C6         -3.7117   -0.9794   -1.1748 C.ar      1 <0>        -0.1282
      9 C7         -2.3790   -0.6228   -1.1786 C.ar      1 <0>        -0.0372
     10 C8         -5.8085   -1.5372    0.0493 C.2       1 <0>         0.2547
     11 N1         -6.5354   -1.7325    1.1251 N.2       1 <0>        -0.4461
     12 H1         -6.3014   -1.6499   -1.9814 H         1 <0>         0.4258
     13 C9         -7.7874   -2.0621    0.7674 C.2       1 <0>         0.0602
     14 C10        -7.8417   -2.0722   -0.6171 C.2       1 <0>         0.0566
     15 N2         -6.5848   -1.7327   -1.0574 N.pl3     1 <0>        -0.5495
     16 C11        -9.0181   -2.3805   -1.4536 C.ar      1 <0>        -0.0409
     17 C12        -9.8296   -3.4752   -1.1461 C.ar      1 <0>        -0.0563
     18 C13       -10.9276   -3.7580   -1.9308 C.ar      1 <0>        -0.1472
     19 C14       -11.2264   -2.9588   -3.0231 C.ar      1 <0>         0.1132
     20 C15       -10.4247   -1.8716   -3.3334 C.ar      1 <0>        -0.1493
     21 C16        -9.3277   -1.5753   -2.5523 C.ar      1 <0>        -0.0771
     22 F1        -12.3033   -3.2409   -3.7887 F         1 <0>        -0.1333
     23 C17        -8.9081   -2.3615    1.6873 C.ar      1 <0>         0.0388
     24 C18       -10.2207   -2.0004    1.3630 C.ar      1 <0>        -0.1583
     25 C19       -11.2344   -2.2984    2.2489 C.ar      1 <0>         0.1017
     26 N3        -10.9796   -2.9143    3.3880 N.ar      1 <0>        -0.4833
     27 C20        -9.7568   -3.2721    3.7322 C.ar      1 <0>         0.1012
     28 C21        -8.6850   -3.0185    2.9026 C.ar      1 <0>        -0.1464
     29 H2          1.0001    2.1870    0.0043 H         1 <0>         0.1086
     30 H3         -0.5497    2.1708   -0.8711 H         1 <0>         0.1118
     31 H4         -0.5327    2.1613    0.9088 H         1 <0>         0.0820
     32 H5         -1.8241   -0.4925    2.1502 H         1 <0>         0.1340
     33 H6         -4.2020   -1.1203    2.1806 H         1 <0>         0.1409
     34 H7         -4.2381   -1.1156   -2.1079 H         1 <0>         0.1252
     35 H8         -1.8623   -0.4791   -2.1161 H         1 <0>         0.1447
     36 H9         -9.5973   -4.0991   -0.2957 H         1 <0>         0.1367
     37 H10       -11.5557   -4.6041   -1.6941 H         1 <0>         0.1440
     38 H11       -10.6623   -1.2526   -4.1859 H         1 <0>         0.1424
     39 H12        -8.7065   -0.7250   -2.7921 H         1 <0>         0.1327
     40 H13       -10.4364   -1.4955    0.4329 H         1 <0>         0.1342
     41 H14       -12.2506   -2.0238    2.0075 H         1 <0>         0.1578
     42 H15        -9.5940   -3.7740    4.6745 H         1 <0>         0.1590
     43 H16        -7.6876   -3.3185    3.1884 H         1 <0>         0.1393
@<TRIPOS>BOND
     1    1    2 1
     2    1   29 1
     3    1   30 1
     4    1   31 1
     5    2    3 2
     6    2    4 1
     7    4    9 ar
     8    4    5 ar
     9    5    6 ar
    10    5   32 1
    11    6    7 ar
    12    6   33 1
    13    7    8 ar
    14    7   10 1
    15    8    9 ar
    16    8   34 1
    17    9   35 1
    18   10   11 2
    19   10   15 1
    20   11   13 1
    21   12   15 1
    22   13   23 1
    23   13   14 2
    24   14   16 1
    25   14   15 1
    26   16   21 ar
    27   16   17 ar
    28   17   18 ar
    29   17   36 1
    30   18   19 ar
    31   18   37 1
    32   19   20 ar
    33   19   22 1
    34   20   21 ar
    35   20   38 1
    36   21   39 1
    37   23   28 ar
    38   23   24 ar
    39   24   25 ar
    40   24   40 1
    41   25   26 ar
    42   25   41 1
    43   26   27 ar
    44   27   28 ar
    45   27   42 1
    46   28   43 1
@<TRIPOS>MOLECULE
CHEMBL248983
   45    48     0     0     0
SMALL
USER_CHARGES

@<TRIPOS>ATOM
      1 C1         -0.1573    1.7484    0.0187 C.3       1 <0>        -0.6372
      2 S1         -0.0960   -0.0646    0.0125 S.o2      1 <0>         2.5267
      3 O1          0.7543   -0.5291    1.0520 O.2       1 <0>        -1.0271
      4 O2         -1.4034   -0.5980   -0.1468 O.2       1 <0>        -1.0271
      5 N1          0.6948   -0.4589   -1.3881 N.2       1 <0>        -1.0928
      6 C2          0.9169   -1.7986   -1.7108 C.ar      1 <0>         0.3006
      7 C3          0.4687   -2.8013   -0.8585 C.ar      1 <0>        -0.2576
      8 C4          0.6869   -4.1251   -1.1752 C.ar      1 <0>        -0.0406
      9 C5          1.3572   -4.4580   -2.3515 C.ar      1 <0>        -0.1799
     10 C6          1.8054   -3.4508   -3.2050 C.ar      1 <0>        -0.0552
     11 C7          1.5808   -2.1284   -2.8868 C.ar      1 <0>        -0.1870
     12 C8          1.5936   -5.8815   -2.6941 C.ar      1 <0>        -0.0330
     13 C9          2.2658   -6.2178   -3.8617 C.ar      1 <0>        -0.1007
     14 C10         2.4634   -7.5786   -4.1394 C.ar      1 <0>        -0.0984
     15 C11         1.9752   -8.5483   -3.2282 C.ar      1 <0>         0.1226
     16 C12         2.1737   -9.9112   -3.5075 C.ar      1 <0>        -0.1111
     17 C13         2.8280  -10.2884   -4.6407 C.ar      1 <0>        -0.0921
     18 C14         3.3116   -9.3450   -5.5414 C.ar      1 <0>        -0.1368
     19 C15         3.1376   -7.9968   -5.3074 C.ar      1 <0>         0.1685
     20 N2          3.6239   -7.0573   -6.2133 N.pl3     1 <0>        -0.6461
     21 C16         3.8092   -7.4079   -7.5470 C.ar      1 <0>         0.3956
     22 C17         4.4170   -6.5090   -8.4178 C.ar      1 <0>        -0.2119
     23 C18         4.5953   -6.8699   -9.7410 C.ar      1 <0>        -0.0236
     24 C19         4.1577   -8.1235  -10.1509 C.ar      1 <0>        -0.1435
     25 C20         3.5622   -8.9658   -9.2319 C.ar      1 <0>         0.1608
     26 N3          3.4105   -8.5958   -7.9743 N.ar      1 <0>        -0.5095
     27 Cl1         4.3568   -8.6258  -11.8007 Cl        1 <0>        -0.0633
     28 N4          1.3342   -8.1634   -2.1189 N.ar      1 <0>        -0.4710
     29 C21         1.1448   -6.8986   -1.8381 C.ar      1 <0>         0.1312
     30 H1          0.8574    2.1463    0.0028 H         1 <0>         0.1158
     31 H2         -0.6980    2.0966   -0.8613 H         1 <0>         0.1158
     32 H3         -0.6681    2.0915    0.9184 H         1 <0>         0.1027
     33 H4         -0.0505   -2.5429    0.0526 H         1 <0>         0.1062
     34 H5          0.3392   -4.9037   -0.5124 H         1 <0>         0.1079
     35 H6          2.3252   -3.7065   -4.1166 H         1 <0>         0.1045
     36 H7          1.9242   -1.3480   -3.5497 H         1 <0>         0.1146
     37 H8          2.6253   -5.4546   -4.5360 H         1 <0>         0.1294
     38 H9          1.8069  -10.6608   -2.8220 H         1 <0>         0.1291
     39 H10         2.9744  -11.3390   -4.8437 H         1 <0>         0.1256
     40 H11         3.8274   -9.6712   -6.4325 H         1 <0>         0.1488
     41 H12         3.8333   -6.1585   -5.9144 H         1 <0>         0.4208
     42 H13         4.7448   -5.5422   -8.0653 H         1 <0>         0.1448
     43 H14         5.0636   -6.1926  -10.4398 H         1 <0>         0.1462
     44 H15         3.2202   -9.9409   -9.5458 H         1 <0>         0.1670
     45 H16         0.6265   -6.6321   -0.9289 H         1 <0>         0.1604
@<TRIPOS>BOND
     1    1    2 1
     2    1   30 1
     3    1   31 1
     4    1   32 1
     5    2    3 2
     6    2    4 2
     7    2    5 1
     8    5    6 1
     9    6   11 ar
    10    6    7 ar
    11    7    8 ar
    12    7   33 1
    13    8    9 ar
    14    8   34 1
    15    9   10 ar
    16    9   12 1
    17   10   11 ar
    18   10   35 1
    19   11   36 1
    20   12   29 ar
    21   12   13 ar
    22   13   14 ar
    23   13   37 1
    24   14   19 ar
    25   14   15 ar
    26   15   16 ar
    27   15   28 ar
    28   16   17 ar
    29   16   38 1
    30   17   18 ar
    31   17   39 1
    32   18   19 ar
    33   18   40 1
    34   19   20 1
    35   20   21 1
    36   20   41 1
    37   21   26 ar
    38   21   22 ar
    39   22   23 ar
    40   22   42 1
    41   23   24 ar
    42   23   43 1
    43   24   25 ar
    44   24   27 1
    45   25   26 ar
    46   25   44 1
    47   28   29 ar
    48   29   45 1
@<TRIPOS>MOLECULE
CHEMBL551140
   40    43     0     0     0
SMALL
USER_CHARGES

@<TRIPOS>ATOM
      1 C1         -0.0184    1.5028    0.0103 C.3       1 <0>        -0.1207
      2 C2          0.0021   -0.0041    0.0020 C.ar      1 <0>        -0.0252
      3 C3          0.0056   -0.6832   -1.2044 C.ar      1 <0>        -0.1488
      4 C4          0.0243   -2.0640   -1.2205 C.ar      1 <0>        -0.0265
      5 C5          0.0395   -2.7675   -0.0217 C.ar      1 <0>        -0.1193
      6 C6          0.0360   -2.0848    1.2009 C.ar      1 <0>         0.1827
      7 C7          0.0228   -0.6943    1.1974 C.ar      1 <0>        -0.1456
      8 N1          0.0535   -3.0041    2.2455 N.am      1 <0>        -0.5442
      9 C8          0.0685   -4.2683    1.7895 C.2       1 <0>         0.5364
     10 O1          0.0846   -5.2755    2.4696 O.2       1 <0>        -0.4386
     11 C9          0.0607   -4.2135    0.3049 C.2       1 <0>         0.1218
     12 N2          0.0700   -5.2155   -0.5268 N.2       1 <0>        -0.2433
     13 O2          0.0904   -6.5434   -0.0354 O.3       1 <0>        -0.3682
     14 C10         0.0552   -2.6396    3.6645 C.3       1 <0>         0.1659
     15 C11        -1.3648   -2.5339    4.1577 C.ar      1 <0>        -0.1203
     16 C12        -1.9647   -1.2951    4.2746 C.ar      1 <0>        -0.0962
     17 C13        -3.2689   -1.1975    4.7283 C.ar      1 <0>         0.0686
     18 C14        -3.9724   -2.3410    5.0663 C.ar      1 <0>        -0.0985
     19 C15        -3.3745   -3.5819    4.9508 C.ar      1 <0>        -0.1793
     20 C16        -2.0713   -3.6817    4.4890 C.ar      1 <0>         0.1461
     21 O3         -1.4761   -4.8977    4.3574 O.3       1 <0>        -0.2995
     22 C17        -2.0920   -5.9957    5.0364 C.3       1 <0>         0.2220
     23 O4         -3.4987   -5.9697    4.7664 O.3       1 <0>        -0.3809
     24 C18        -4.1487   -4.8203    5.3257 C.3       1 <0>         0.1001
     25 F1         -3.8554    0.0142    4.8419 F         1 <0>        -0.1348
     26 H1          1.0042    1.8801    0.0026 H         1 <0>         0.0789
     27 H2         -0.5455    1.8639   -0.8728 H         1 <0>         0.0740
     28 H3         -0.5286    1.8543    0.9071 H         1 <0>         0.0711
     29 H4         -0.0066   -0.1329   -2.1335 H         1 <0>         0.1360
     30 H5          0.0267   -2.5952   -2.1608 H         1 <0>         0.1366
     31 H6          0.0246   -0.1531    2.1321 H         1 <0>         0.1310
     32 H7          0.0960   -7.2188   -0.7274 H         1 <0>         0.4099
     33 H8          0.5822   -3.4041    4.2353 H         1 <0>         0.1087
     34 H9          0.5567   -1.6803    3.7925 H         1 <0>         0.1024
     35 H10        -1.4161   -0.4026    4.0122 H         1 <0>         0.1453
     36 H11        -4.9895   -2.2634    5.4210 H         1 <0>         0.1442
     37 H12        -1.6677   -6.9330    4.6765 H         1 <0>         0.1456
     38 H13        -1.9237   -5.9032    6.1094 H         1 <0>         0.0647
     39 H14        -4.1939   -4.9063    6.4114 H         1 <0>         0.0804
     40 H15        -5.1594   -4.7533    4.9231 H         1 <0>         0.1172
@<TRIPOS>BOND
     1    1    2 1
     2    1   26 1
     3    1   27 1
     4    1   28 1
     5    2    7 ar
     6    2    3 ar
     7    3    4 ar
     8    3   29 1
     9    4    5 ar
    10    4   30 1
    11    5   11 1
    12    5    6 ar
    13    6    7 ar
    14    6    8 1
    15    7   31 1
    16    8    9 am
    17    8   14 1
    18    9   10 2
    19    9   11 1
    20   11   12 2
    21   12   13 1
    22   13   32 1
    23   14   15 1
    24   14   33 1
    25   14   34 1
    26   15   20 ar
    27   15   16 ar
    28   16   17 ar
    29   16   35 1
    30   17   18 ar
    31   17   25 1
    32   18   19 ar
    33   18   36 1
    34   19   24 1
    35   19   20 ar
    36   20   21 1
    37   21   22 1
    38   22   23 1
    39   22   37 1
    40   22   38 1
    41   23   24 1
    42   24   39 1
    43   24   40 1
@<TRIPOS>MOLECULE
CHEMBL370899
   47    50     0     0     0
SMALL
USER_CHARGES

@<TRIPOS>ATOM
      1 C1         -0.0166    1.3699    0.0096 C.ar      1 <0>        -0.0764
      2 C2          1.1572    2.1045    0.0023 C.ar      1 <0>        -0.1193
      3 C3          2.3694    1.4373   -0.0129 C.ar      1 <0>        -0.0386
      4 C4          2.3887    0.0627   -0.0205 C.ar      1 <0>        -0.1572
      5 C5          1.2179   -0.7095   -0.0134 C.ar      1 <0>         0.1249
      6 C6          0.0021   -0.0041    0.0020 C.ar      1 <0>        -0.1199
      7 N1          1.3955   -2.0811   -0.0225 N.pl3     1 <0>        -0.6087
      8 C7          2.6545   -2.6113   -0.0374 C.2       1 <0>         0.2609
      9 C8          3.0385   -3.9533   -0.0487 C.2       1 <0>        -0.1381
     10 C9          4.4277   -4.3004   -0.0638 C.1       1 <0>         0.2760
     11 N2          5.5298   -4.5757   -0.0757 N.1       1 <0>        -0.4146
     12 C10         2.0145   -5.0127   -0.0451 C.ar      1 <0>         0.3133
     13 C11         2.3877   -6.3651   -0.0505 C.ar      1 <0>        -0.2832
     14 C12         1.4023   -7.3159   -0.0470 C.ar      1 <0>         0.2042
     15 N3          0.1312   -6.9385   -0.0385 N.ar      1 <0>        -0.5771
     16 C13        -0.2016   -5.6556   -0.0335 C.ar      1 <0>         0.5843
     17 N4          0.7163   -4.7013   -0.0311 N.ar      1 <0>        -0.6078
     18 N5         -1.5405   -5.3051   -0.0252 N.pl3     1 <0>        -0.7016
     19 C14        -2.5705   -6.3470   -0.0221 C.3       1 <0>         0.1425
     20 C15        -3.9548   -5.6956   -0.0128 C.3       1 <0>         0.0431
     21 N6         -4.9876   -6.7403   -0.0097 N.3       1 <0>        -0.5317
     22 C16        -4.9736   -7.4987   -1.2690 C.3       1 <0>         0.0119
     23 C17        -6.0220   -8.6122   -1.1996 C.3       1 <0>         0.0627
     24 O1         -7.3032   -8.0375   -0.9278 O.3       1 <0>        -0.3850
     25 C18        -7.3528   -7.2922    0.2918 C.3       1 <0>         0.0628
     26 C19        -6.3178   -6.1653    0.2374 C.3       1 <0>         0.0186
     27 S1          3.6842   -1.1528   -0.0394 S.3       1 <0>         0.0768
     28 H1         -0.9648    1.8866    0.0260 H         1 <0>         0.1389
     29 H2          1.1270    3.1841    0.0081 H         1 <0>         0.1430
     30 H3          3.2952    1.9934   -0.0191 H         1 <0>         0.1411
     31 H4         -0.9301   -0.5494    0.0080 H         1 <0>         0.1327
     32 H5          0.6237   -2.6686   -0.0180 H         1 <0>         0.4327
     33 H6          3.4294   -6.6500   -0.0577 H         1 <0>         0.1418
     34 H7          1.6584   -8.3651   -0.0513 H         1 <0>         0.1692
     35 H8         -1.7970   -4.3696   -0.0215 H         1 <0>         0.4088
     36 H9         -2.4654   -6.9644   -0.9142 H         1 <0>         0.0691
     37 H10        -2.4555   -6.9688    0.8657 H         1 <0>         0.0791
     38 H11        -4.0599   -5.0781    0.8793 H         1 <0>         0.0833
     39 H12        -4.0697   -5.0737   -0.9006 H         1 <0>         0.0424
     40 H13        -5.2062   -6.8310   -2.0986 H         1 <0>         0.0451
     41 H14        -3.9869   -7.9367   -1.4192 H         1 <0>         0.0918
     42 H15        -6.0550   -9.1410   -2.1521 H         1 <0>         0.1001
     43 H16        -5.7599   -9.3098   -0.4041 H         1 <0>         0.0624
     44 H17        -8.3482   -6.8663    0.4178 H         1 <0>         0.1001
     45 H18        -7.1294   -7.9514    1.1306 H         1 <0>         0.0620
     46 H19        -6.3124   -5.6301    1.1870 H         1 <0>         0.0884
     47 H20        -6.5719   -5.4763   -0.5680 H         1 <0>         0.0451
@<TRIPOS>BOND
     1    1    6 ar
     2    1    2 ar
     3    1   28 1
     4    2    3 ar
     5    2   29 1
     6    3    4 ar
     7    3   30 1
     8    4   27 1
     9    4    5 ar
    10    5    6 ar
    11    5    7 1
    12    6   31 1
    13    7    8 1
    14    7   32 1
    15    8    9 2
    16    8   27 1
    17    9   10 1
    18    9   12 1
    19   10   11 3
    20   12   17 ar
    21   12   13 ar
    22   13   14 ar
    23   13   33 1
    24   14   15 ar
    25   14   34 1
    26   15   16 ar
    27   16   17 ar
    28   16   18 1
    29   18   19 1
    30   18   35 1
    31   19   20 1
    32   19   36 1
    33   19   37 1
    34   20   21 1
    35   20   38 1
    36   20   39 1
    37   21   26 1
    38   21   22 1
    39   22   23 1
    40   22   40 1
    41   22   41 1
    42   23   24 1
    43   23   42 1
    44   23   43 1
    45   24   25 1
    46   25   26 1
    47   25   44 1
    48   25   45 1
    49   26   46 1
    50   26   47 1
@<TRIPOS>MOLECULE
CHEMBL370899__1
   47    50     0     0     0
SMALL
USER_CHARGES

@<TRIPOS>ATOM
      1 C1         -0.0166    1.3699    0.0096 C.ar      1 <0>        -0.0799
      2 C2          1.1572    2.1045    0.0023 C.ar      1 <0>        -0.1190
      3 C3          2.3694    1.4373   -0.0129 C.ar      1 <0>        -0.0396
      4 C4          2.3887    0.0627   -0.0205 C.ar      1 <0>        -0.1883
      5 C5          1.2179   -0.7095   -0.0134 C.ar      1 <0>         0.1193
      6 C6          0.0021   -0.0041    0.0020 C.ar      1 <0>        -0.1207
      7 N1          1.3955   -2.0811   -0.0225 N.pl3     1 <0>        -0.6290
      8 C7          2.6545   -2.6113   -0.0374 C.2       1 <0>         0.2414
      9 C8          3.0385   -3.9533   -0.0487 C.2       1 <0>        -0.1367
     10 C9          2.0433   -4.9829   -0.0452 C.1       1 <0>         0.2721
     11 N2          1.2537   -5.7996   -0.0424 N.1       1 <0>        -0.4248
     12 C10         4.4680   -4.3104   -0.0642 C.ar      1 <0>         0.3087
     13 C11         4.8666   -5.6555   -0.0815 C.ar      1 <0>        -0.2845
     14 C12         6.2058   -5.9409   -0.0954 C.ar      1 <0>         0.2009
     15 N3          7.0848   -4.9482   -0.0923 N.ar      1 <0>        -0.5783
     16 C13         6.6886   -3.6836   -0.0759 C.ar      1 <0>         0.5843
     17 N4          5.4049   -3.3593   -0.0676 N.ar      1 <0>        -0.5829
     18 N5          7.6395   -2.6778   -0.0728 N.pl3     1 <0>        -0.6999
     19 C14         9.0646   -3.0170   -0.0875 C.3       1 <0>         0.1429
     20 C15         9.8948   -1.7318   -0.0805 C.3       1 <0>         0.0428
     21 N6         11.3238   -2.0720   -0.0953 N.3       1 <0>        -0.5320
     22 C16        11.7187   -2.7424    1.1520 C.3       1 <0>         0.0120
     23 C17        13.1972   -3.1316    1.0699 C.3       1 <0>         0.0627
     24 O1         13.9792   -1.9621    0.8128 O.3       1 <0>        -0.3853
     25 C18        13.6216   -1.2845   -0.3948 C.3       1 <0>         0.0628
     26 C19        12.1475   -0.8766   -0.3275 C.3       1 <0>         0.0186
     27 S1          3.6842   -1.1528   -0.0394 S.3       1 <0>         0.1830
     28 H1         -0.9648    1.8866    0.0260 H         1 <0>         0.1374
     29 H2          1.1270    3.1841    0.0081 H         1 <0>         0.1412
     30 H3          3.2952    1.9934   -0.0191 H         1 <0>         0.1397
     31 H4         -0.9301   -0.5494    0.0080 H         1 <0>         0.1309
     32 H5          0.6237   -2.6686   -0.0180 H         1 <0>         0.4164
     33 H6          4.1333   -6.4484   -0.0833 H         1 <0>         0.1382
     34 H7          6.5434   -6.9667   -0.1085 H         1 <0>         0.1671
     35 H8          7.3622   -1.7483   -0.0608 H         1 <0>         0.4117
     36 H9          9.3060   -3.6103    0.7944 H         1 <0>         0.0680
     37 H10         9.2920   -3.5916   -0.9854 H         1 <0>         0.0780
     38 H11         9.6534   -1.1385   -0.9624 H         1 <0>         0.0839
     39 H12         9.6674   -1.1572    0.8174 H         1 <0>         0.0431
     40 H13        11.5666   -2.0658    1.9929 H         1 <0>         0.0451
     41 H14        11.1137   -3.6384    1.2909 H         1 <0>         0.0920
     42 H15        13.5091   -3.5776    2.0143 H         1 <0>         0.0997
     43 H16        13.3402   -3.8498    0.2626 H         1 <0>         0.0621
     44 H17        14.2406   -0.3946   -0.5098 H         1 <0>         0.0997
     45 H18        13.7770   -1.9490   -1.2447 H         1 <0>         0.0617
     46 H19        11.8555   -0.4106   -1.2686 H         1 <0>         0.0884
     47 H20        12.0023   -0.1701    0.4897 H         1 <0>         0.0451
@<TRIPOS>BOND
     1    1    6 ar
     2    1    2 ar
     3    1   28 1
     4    2    3 ar
     5    2   29 1
     6    3    4 ar
     7    3   30 1
     8    4   27 1
     9    4    5 ar
    10    5    6 ar
    11    5    7 1
    12    6   31 1
    13    7    8 1
    14    7   32 1
    15    8    9 2
    16    8   27 1
    17    9   10 1
    18    9   12 1
    19   10   11 3
    20   12   17 ar
    21   12   13 ar
    22   13   14 ar
    23   13   33 1
    24   14   15 ar
    25   14   34 1
    26   15   16 ar
    27   16   17 ar
    28   16   18 1
    29   18   19 1
    30   18   35 1
    31   19   20 1
    32   19   36 1
    33   19   37 1
    34   20   21 1
    35   20   38 1
    36   20   39 1
    37   21   26 1
    38   21   22 1
    39   22   23 1
    40   22   40 1
    41   22   41 1
    42   23   24 1
    43   23   42 1
    44   23   43 1
    45   24   25 1
    46   25   26 1
    47   25   44 1
    48   25   45 1
    49   26   46 1
    50   26   47 1
@<TRIPOS>MOLECULE
CHEMBL572283
   51    55     0     0     0
SMALL
USER_CHARGES

@<TRIPOS>ATOM
      1 C1         -0.6708    1.4333    0.1234 C.ar      1 <0>        -0.0738
      2 C2          0.5452    2.0868    0.1000 C.ar      1 <0>        -0.1451
      3 C3          1.7310    1.3539    0.0992 C.ar      1 <0>        -0.0170
      4 C4          1.6850   -0.0380    0.1221 C.ar      1 <0>        -0.1497
      5 C5          0.4595   -0.6867    0.1456 C.ar      1 <0>         0.2125
      6 C6         -0.7177    0.0525    0.1461 C.ar      1 <0>        -0.1787
      7 N1          0.4082   -2.0826    0.1682 N.pl3     1 <0>        -0.6327
      8 C7          1.6345   -2.8877    0.0527 C.3       1 <0>         0.0850
      9 C8          1.6497   -3.9118    1.1932 C.3       1 <0>         0.0458
     10 O1          0.4149   -4.6324    1.1953 O.3       1 <0>        -0.3786
     11 C9         -0.7364   -3.8200    1.4368 C.3       1 <0>         0.0454
     12 C10        -0.8732   -2.7911    0.3144 C.3       1 <0>         0.0863
     13 C11         3.0381    2.0544    0.0735 C.ar      1 <0>         0.2631
     14 C12         3.0980    3.4480    0.1607 C.ar      1 <0>        -0.2639
     15 C13         4.3398    4.0572    0.1332 C.ar      1 <0>         0.1924
     16 N2          5.4261    3.3086    0.0259 N.ar      1 <0>        -0.5584
     17 C14         5.3396    1.9887   -0.0551 C.ar      1 <0>         0.5607
     18 N3          4.1721    1.3652   -0.0274 N.ar      1 <0>        -0.5553
     19 N4          6.5009    1.2419   -0.1669 N.pl3     1 <0>        -0.6386
     20 C15         7.7477    1.8694   -0.0736 C.ar      1 <0>         0.1827
     21 C16         7.9196    2.9494    0.7830 C.ar      1 <0>        -0.0956
     22 C17         9.1499    3.5683    0.8747 C.ar      1 <0>        -0.0754
     23 C18        10.2156    3.1115    0.1110 C.ar      1 <0>         0.0974
     24 C19        10.0442    2.0321   -0.7453 C.ar      1 <0>        -0.0915
     25 C20         8.8157    1.4091   -0.8333 C.ar      1 <0>        -0.1292
     26 N5         11.4662    3.7413    0.2041 N.pl3     1 <0>        -0.2377
     27 C21        12.5864    3.3993   -0.4889 C.2       1 <0>        -0.0516
     28 C22        13.5502    4.2638   -0.0928 C.2       1 <0>        -0.0431
     29 N6         12.9855    5.0777    0.8059 N.2       1 <0>        -0.2637
     30 N7         11.7519    4.7465    0.9559 N.2       1 <0>        -0.0800
     31 H1         -1.5882    2.0032    0.1285 H         1 <0>         0.1296
     32 H2          0.5778    3.1661    0.0818 H         1 <0>         0.1275
     33 H3          2.6009   -0.6103    0.1213 H         1 <0>         0.1357
     34 H4         -1.6715   -0.4538    0.1648 H         1 <0>         0.1260
     35 H5          1.6444   -3.4059   -0.9062 H         1 <0>         0.0722
     36 H6          2.5076   -2.2397    0.1294 H         1 <0>         0.0942
     37 H7          2.4766   -4.6069    1.0474 H         1 <0>         0.1057
     38 H8          1.7711   -3.3949    2.1451 H         1 <0>         0.0559
     39 H9         -1.6261   -4.4490    1.4663 H         1 <0>         0.1065
     40 H10        -0.6236   -3.3028    2.3896 H         1 <0>         0.0556
     41 H11        -1.6599   -2.0793    0.5644 H         1 <0>         0.0931
     42 H12        -1.1201   -3.2995   -0.6177 H         1 <0>         0.0720
     43 H13         2.1960    4.0355    0.2473 H         1 <0>         0.1518
     44 H14         4.4219    5.1321    0.1982 H         1 <0>         0.1751
     45 H15         6.4496    0.2838   -0.3097 H         1 <0>         0.4261
     46 H16         7.0906    3.3050    1.3769 H         1 <0>         0.1464
     47 H17         9.2835    4.4081    1.5404 H         1 <0>         0.1459
     48 H18        10.8734    1.6770   -1.3393 H         1 <0>         0.1394
     49 H19         8.6836    0.5666   -1.4961 H         1 <0>         0.1406
     50 H20        12.6865    2.6000   -1.2083 H         1 <0>         0.1937
     51 H21        14.5741    4.2909   -0.4353 H         1 <0>         0.1956
@<TRIPOS>BOND
     1    1    6 ar
     2    1    2 ar
     3    1   31 1
     4    2    3 ar
     5    2   32 1
     6    3    4 ar
     7    3   13 1
     8    4    5 ar
     9    4   33 1
    10    5    6 ar
    11    5    7 1
    12    6   34 1
    13    7   12 1
    14    7    8 1
    15    8    9 1
    16    8   35 1
    17    8   36 1
    18    9   10 1
    19    9   37 1
    20    9   38 1
    21   10   11 1
    22   11   12 1
    23   11   39 1
    24   11   40 1
    25   12   41 1
    26   12   42 1
    27   13   18 ar
    28   13   14 ar
    29   14   15 ar
    30   14   43 1
    31   15   16 ar
    32   15   44 1
    33   16   17 ar
    34   17   18 ar
    35   17   19 1
    36   19   20 1
    37   19   45 1
    38   20   25 ar
    39   20   21 ar
    40   21   22 ar
    41   21   46 1
    42   22   23 ar
    43   22   47 1
    44   23   24 ar
    45   23   26 1
    46   24   25 ar
    47   24   48 1
    48   25   49 1
    49   26   30 1
    50   26   27 1
    51   27   28 2
    52   27   50 1
    53   28   29 1
    54   28   51 1
    55   29   30 2
@<TRIPOS>MOLECULE
CHEMBL572282
   38    41     0     0     0
SMALL
USER_CHARGES

@<TRIPOS>ATOM
      1 C1          0.0016    1.3031   -0.7382 C.ar      1 <0>        -0.0981
      2 C2          1.1888    2.0082   -0.8204 C.ar      1 <0>        -0.1281
      3 C3          2.3923    1.3647   -0.6151 C.ar      1 <0>        -0.0701
      4 C4          2.4099    0.0017   -0.3240 C.ar      1 <0>        -0.0665
      5 C5          1.2105   -0.7036   -0.2420 C.ar      1 <0>        -0.0876
      6 C6          0.0130   -0.0497   -0.4496 C.ar      1 <0>        -0.1255
      7 C7          3.7000   -0.6955   -0.1029 C.ar      1 <0>         0.2633
      8 C8          3.7274   -2.0631    0.1837 C.ar      1 <0>        -0.2705
      9 C9          4.9545   -2.6705    0.3819 C.ar      1 <0>         0.1939
     10 N1          6.0579   -1.9446    0.2951 N.ar      1 <0>        -0.5590
     11 C10         6.0023   -0.6491    0.0218 C.ar      1 <0>         0.5637
     12 N2          4.8497   -0.0296   -0.1798 N.ar      1 <0>        -0.5579
     13 N3          7.1806    0.0745   -0.0602 N.pl3     1 <0>        -0.6401
     14 C11         8.4126   -0.5825    0.0288 C.ar      1 <0>         0.1686
     15 C12         8.5865   -1.8183   -0.5814 C.ar      1 <0>        -0.0878
     16 C13         9.8020   -2.4663   -0.4934 C.ar      1 <0>        -0.0881
     17 C14        10.8507   -1.8832    0.2054 C.ar      1 <0>         0.1293
     18 C15        10.6772   -0.6480    0.8154 C.ar      1 <0>        -0.1096
     19 C16         9.4638    0.0033    0.7225 C.ar      1 <0>        -0.1193
     20 N4         12.0858   -2.5426    0.2955 N.pl3     1 <0>        -0.3263
     21 C17        13.1874   -2.1096    0.9382 C.2       1 <0>         0.2587
     22 N5         14.1252   -3.0097    0.7865 N.2       1 <0>        -0.5372
     23 C18        13.6638   -4.0252    0.0578 C.2       1 <0>         0.2067
     24 N6         12.4179   -3.7883   -0.2616 N.2       1 <0>        -0.3146
     25 H1         -0.9381    1.8116   -0.8955 H         1 <0>         0.1270
     26 H2          1.1739    3.0643   -1.0460 H         1 <0>         0.1284
     27 H3          3.3186    1.9161   -0.6803 H         1 <0>         0.1352
     28 H4          1.2183   -1.7599   -0.0171 H         1 <0>         0.1301
     29 H5         -0.9169   -0.5953   -0.3866 H         1 <0>         0.1297
     30 H6          2.8120   -2.6324    0.2493 H         1 <0>         0.1496
     31 H7          5.0115   -3.7256    0.6055 H         1 <0>         0.1739
     32 H8          7.1516    1.0367   -0.1793 H         1 <0>         0.4257
     33 H9          7.7706   -2.2721   -1.1243 H         1 <0>         0.1385
     34 H10         9.9373   -3.4270   -0.9677 H         1 <0>         0.1415
     35 H11        11.4931   -0.1948    1.3588 H         1 <0>         0.1371
     36 H12         9.3304    0.9663    1.1929 H         1 <0>         0.1392
     37 H13        13.2807   -1.1817    1.4830 H         1 <0>         0.2225
     38 H14        14.2262   -4.9043   -0.2201 H         1 <0>         0.2236
@<TRIPOS>BOND
     1    1    6 ar
     2    1    2 ar
     3    1   25 1
     4    2    3 ar
     5    2   26 1
     6    3    4 ar
     7    3   27 1
     8    4    5 ar
     9    4    7 1
    10    5    6 ar
    11    5   28 1
    12    6   29 1
    13    7   12 ar
    14    7    8 ar
    15    8    9 ar
    16    8   30 1
    17    9   10 ar
    18    9   31 1
    19   10   11 ar
    20   11   12 ar
    21   11   13 1
    22   13   14 1
    23   13   32 1
    24   14   19 ar
    25   14   15 ar
    26   15   16 ar
    27   15   33 1
    28   16   17 ar
    29   16   34 1
    30   17   18 ar
    31   17   20 1
    32   18   19 ar
    33   18   35 1
    34   19   36 1
    35   20   24 1
    36   20   21 1
    37   21   22 2
    38   21   37 1
    39   22   23 1
    40   23   24 2
    41   23   38 1
@<TRIPOS>MOLECULE
CHEMBL202676
   56    59     0     0     0
SMALL
USER_CHARGES

@<TRIPOS>ATOM
      1 C1          2.9940   -5.6153    1.2398 C.3       1 <0>         0.0299
      2 O1          1.9549   -4.6356    1.2907 O.3       1 <0>        -0.3856
      3 C2          0.6396   -5.1755    1.1477 C.3       1 <0>         0.0857
      4 C3          0.2572   -5.2016   -0.3335 C.3       1 <0>        -0.1411
      5 C4         -1.1511   -5.7796   -0.4865 C.3       1 <0>        -0.0974
      6 C5         -2.1464   -4.9080    0.2819 C.3       1 <0>        -0.1065
      7 C6         -1.7640   -4.8819    1.7631 C.3       1 <0>        -0.1093
      8 C7         -0.3557   -4.3038    1.9161 C.3       1 <0>        -0.1144
      9 C8         -3.5336   -5.4773    0.1311 C.2       1 <0>         0.5084
     10 O2         -3.7088   -6.4813   -0.5261 O.2       1 <0>        -0.4645
     11 N1         -4.5794   -4.8707    0.7268 N.am      1 <0>        -0.6635
     12 C9         -5.8749   -5.3348    0.5023 C.ar      1 <0>         0.3652
     13 C10        -6.9547   -4.6388    1.0293 C.ar      1 <0>        -0.1910
     14 C11        -8.2444   -5.1157    0.7960 C.ar      1 <0>         0.0189
     15 C12        -8.3924   -6.2814    0.0367 C.ar      1 <0>        -0.1886
     16 C13        -7.2680   -6.9132   -0.4508 C.ar      1 <0>         0.1379
     17 N2         -6.0623   -6.4312   -0.2154 N.ar      1 <0>        -0.4730
     18 C14        -9.4289   -4.4054    1.3396 C.ar      1 <0>         0.0337
     19 C15        -9.2810   -3.2364    2.0948 C.ar      1 <0>        -0.2062
     20 C16       -10.4047   -2.6047    2.5830 C.ar      1 <0>         0.1499
     21 N3        -11.6109   -3.0863    2.3481 N.ar      1 <0>        -0.5247
     22 C17       -11.7984   -4.1890    1.6389 C.ar      1 <0>         0.3931
     23 C18       -10.7180   -4.8822    1.1064 C.ar      1 <0>        -0.2071
     24 N4        -13.0905   -4.6550    1.4200 N.pl3     1 <0>        -0.6611
     25 C19       -14.1879   -3.9036    1.8537 C.ar      1 <0>         0.1559
     26 C20       -14.1221   -2.5164    1.8600 C.ar      1 <0>        -0.0906
     27 C21       -15.2068   -1.7765    2.2887 C.ar      1 <0>        -0.1317
     28 C22       -16.3591   -2.4170    2.7124 C.ar      1 <0>         0.0750
     29 C23       -16.4267   -3.8000    2.7074 C.ar      1 <0>        -0.1306
     30 C24       -15.3469   -4.5437    2.2733 C.ar      1 <0>        -0.1270
     31 F1        -17.4187   -1.6913    3.1317 F         1 <0>        -0.1414
     32 H1          3.9610   -5.1257    1.3557 H         1 <0>         0.0865
     33 H2          2.8531   -6.3365    2.0449 H         1 <0>         0.0417
     34 H3          2.9606   -6.1309    0.2801 H         1 <0>         0.0418
     35 H4          0.6178   -6.1897    1.5465 H         1 <0>         0.0620
     36 H5          0.2790   -4.1874   -0.7323 H         1 <0>         0.0736
     37 H6          0.9663   -5.8225   -0.8809 H         1 <0>         0.0694
     38 H7         -1.4235   -5.7982   -1.5418 H         1 <0>         0.0765
     39 H8         -1.1729   -6.7938   -0.0877 H         1 <0>         0.0728
     40 H9         -2.1246   -3.8938   -0.1169 H         1 <0>         0.1042
     41 H10        -2.4731   -4.2609    2.3105 H         1 <0>         0.0737
     42 H11        -1.7858   -5.8961    2.1619 H         1 <0>         0.0728
     43 H12        -0.0833   -4.2852    2.9714 H         1 <0>         0.0755
     44 H13        -0.3339   -3.2896    1.5173 H         1 <0>         0.0760
     45 H14        -4.4308   -4.1112    1.3116 H         1 <0>         0.4176
     46 H15        -6.7983   -3.7424    1.6110 H         1 <0>         0.1409
     47 H16        -9.3751   -6.6815   -0.1649 H         1 <0>         0.1392
     48 H17        -7.3759   -7.8134   -1.0377 H         1 <0>         0.1639
     49 H18        -8.2984   -2.8344    2.2929 H         1 <0>         0.1378
     50 H19       -10.2965   -1.7025    3.1666 H         1 <0>         0.1636
     51 H20       -10.8744   -5.7784    0.5244 H         1 <0>         0.1388
     52 H21       -13.2307   -5.5010    0.9666 H         1 <0>         0.4202
     53 H22       -13.2233   -2.0165    1.5303 H         1 <0>         0.1451
     54 H23       -15.1560   -0.6978    2.2937 H         1 <0>         0.1370
     55 H24       -17.3263   -4.2975    3.0386 H         1 <0>         0.1378
     56 H25       -15.4018   -5.6223    2.2650 H         1 <0>         0.1333
@<TRIPOS>BOND
     1    1    2 1
     2    1   32 1
     3    1   33 1
     4    1   34 1
     5    2    3 1
     6    3    8 1
     7    3    4 1
     8    3   35 1
     9    4    5 1
    10    4   36 1
    11    4   37 1
    12    5    6 1
    13    5   38 1
    14    5   39 1
    15    6    7 1
    16    6    9 1
    17    6   40 1
    18    7    8 1
    19    7   41 1
    20    7   42 1
    21    8   43 1
    22    8   44 1
    23    9   10 2
    24    9   11 am
    25   11   12 1
    26   11   45 1
    27   12   17 ar
    28   12   13 ar
    29   13   14 ar
    30   13   46 1
    31   14   15 ar
    32   14   18 1
    33   15   16 ar
    34   15   47 1
    35   16   17 ar
    36   16   48 1
    37   18   23 ar
    38   18   19 ar
    39   19   20 ar
    40   19   49 1
    41   20   21 ar
    42   20   50 1
    43   21   22 ar
    44   22   23 ar
    45   22   24 1
    46   23   51 1
    47   24   25 1
    48   24   52 1
    49   25   30 ar
    50   25   26 ar
    51   26   27 ar
    52   26   53 1
    53   27   28 ar
    54   27   54 1
    55   28   29 ar
    56   28   31 1
    57   29   30 ar
    58   29   55 1
    59   30   56 1
@<TRIPOS>MOLECULE
CHEMBL574738
   69    72     0     0     0
SMALL
USER_CHARGES

@<TRIPOS>ATOM
      1 C1         -1.8363    1.8103   -1.4722 C.3       1 <0>        -0.1886
      2 C2         -1.6365    0.2944   -1.4178 C.3       1 <0>        -0.0094
      3 N1         -2.9083   -0.3550   -1.0733 N.4       1 <0>        -0.3871
      4 C3         -3.3047    0.0354    0.2861 C.3       1 <0>        -0.0052
      5 C4         -4.6389   -0.6260    0.6384 C.3       1 <0>         0.0283
      6 N2         -4.4966   -2.0863    0.5514 N.3       1 <0>        -0.5297
      7 C5         -4.0759   -2.4902   -0.7977 C.3       1 <0>         0.0223
      8 C6         -2.7463   -1.8135   -1.1381 C.3       1 <0>        -0.0008
      9 C7         -5.7431   -2.7606    0.9381 C.3       1 <0>         0.0809
     10 C8         -5.4922   -4.2403    1.0747 C.ar      1 <0>        -0.0649
     11 C9         -5.8432   -5.0974    0.0476 C.ar      1 <0>        -0.0933
     12 C10        -5.6142   -6.4537    0.1696 C.ar      1 <0>        -0.0875
     13 C11        -5.0308   -6.9569    1.3252 C.ar      1 <0>         0.1812
     14 C12        -4.6796   -6.0937    2.3545 C.ar      1 <0>        -0.1024
     15 C13        -4.9064   -4.7374    2.2242 C.ar      1 <0>        -0.1362
     16 C14        -4.5199   -3.7991    3.3383 C.3       1 <0>         0.5103
     17 F1         -3.9503   -4.5296    4.3867 F         1 <0>        -0.1764
     18 F2         -3.5923   -2.8665    2.8619 F         1 <0>        -0.1629
     19 F3         -5.6583   -3.1301    3.8007 F         1 <0>        -0.1766
     20 N3         -4.7978   -8.3308    1.4521 N.am      1 <0>        -0.6826
     21 C15        -4.4882   -9.0650    0.3651 C.2       1 <0>         0.7088
     22 O1         -4.3176   -8.5199   -0.7083 O.2       1 <0>        -0.5536
     23 N4         -4.3676  -10.4034    0.4679 N.am      1 <0>        -0.6758
     24 C16        -3.9415  -11.1553   -0.6351 C.ar      1 <0>         0.1613
     25 C17        -3.0319  -10.6150   -1.5342 C.ar      1 <0>        -0.1044
     26 C18        -2.6123  -11.3563   -2.6210 C.ar      1 <0>        -0.0920
     27 C19        -3.0999  -12.6406   -2.8148 C.ar      1 <0>         0.0838
     28 C20        -4.0092  -13.1809   -1.9170 C.ar      1 <0>        -0.0898
     29 C21        -4.4244  -12.4429   -0.8262 C.ar      1 <0>        -0.1275
     30 O2         -2.6868  -13.3700   -3.8854 O.3       1 <0>        -0.2419
     31 C22        -1.4475  -13.9171   -3.8425 C.ar      1 <0>         0.3843
     32 C23        -0.9333  -14.5842   -4.9476 C.ar      1 <0>        -0.3092
     33 C24         0.3448  -15.1285   -4.8538 C.ar      1 <0>         0.4598
     34 N5          1.0234  -14.9910   -3.7165 N.ar      1 <0>        -0.5925
     35 C25         0.5000  -14.3508   -2.6911 C.ar      1 <0>         0.3761
     36 N6         -0.7041  -13.8182   -2.7438 N.ar      1 <0>        -0.6017
     37 N7          0.9023  -15.8038   -5.9283 N.pl3     1 <0>        -0.7108
     38 C26         0.1458  -15.9492   -7.1744 C.3       1 <0>         0.0880
     39 H1         -0.8926    2.2922   -1.7278 H         1 <0>         0.1065
     40 H2         -2.5838    2.0514   -2.2280 H         1 <0>         0.0795
     41 H3         -2.1748    2.1673   -0.4995 H         1 <0>         0.0804
     42 H4         -1.2980   -0.0626   -2.3904 H         1 <0>         0.1302
     43 H5         -0.8890    0.0533   -0.6620 H         1 <0>         0.1299
     44 H6         -2.5411   -0.2873    0.9940 H         1 <0>         0.1386
     45 H7         -3.4119    1.1189    0.3362 H         1 <0>         0.1368
     46 H8         -4.9259   -0.3484    1.6526 H         1 <0>         0.1238
     47 H9         -5.4058   -0.2930   -0.0610 H         1 <0>         0.0621
     48 H10        -3.9521   -3.5727   -0.8311 H         1 <0>         0.1246
     49 H11        -4.8335   -2.1879   -1.5207 H         1 <0>         0.0622
     50 H12        -2.4395   -2.1006   -2.1439 H         1 <0>         0.1352
     51 H13        -1.9856   -2.1267   -0.4230 H         1 <0>         0.1378
     52 H14        -6.0916   -2.3617    1.8908 H         1 <0>         0.1056
     53 H15        -6.5010   -2.5896    0.1736 H         1 <0>         0.0665
     54 H16        -6.2972   -4.7056   -0.8506 H         1 <0>         0.1368
     55 H17        -5.8888   -7.1226   -0.6327 H         1 <0>         0.1503
     56 H18        -4.2257   -6.4819    3.2544 H         1 <0>         0.1458
     57 H19        -4.8592   -8.7548    2.3223 H         1 <0>         0.4154
     58 H20        -4.5758  -10.8463    1.3054 H         1 <0>         0.4130
     59 H21        -2.6528   -9.6149   -1.3838 H         1 <0>         0.1404
     60 H22        -1.9048  -10.9362   -3.3205 H         1 <0>         0.1293
     61 H23        -4.3889  -14.1804   -2.0687 H         1 <0>         0.1369
     62 H24        -5.1283  -12.8655   -0.1245 H         1 <0>         0.1361
     63 H25        -1.5103  -14.6785   -5.8557 H         1 <0>         0.1488
     64 H26         1.0758  -14.2566   -1.7822 H         1 <0>         0.2008
     65 H27         1.7933  -16.1802   -5.8551 H         1 <0>         0.4136
     66 H28         0.7419  -16.5046   -7.8986 H         1 <0>         0.0865
     67 H29        -0.7804  -16.4886   -6.9763 H         1 <0>         0.0628
     68 H30        -0.0868  -14.9627   -7.5754 H         1 <0>         0.0620
     69 H31        -3.6209   -0.0666   -1.7269 H         1 <0>         0.4195
@<TRIPOS>BOND
     1    1    2 1
     2    1   39 1
     3    1   40 1
     4    1   41 1
     5    2    3 1
     6    2   42 1
     7    2   43 1
     8    3    8 1
     9    3    4 1
    10    3   69 1
    11    4    5 1
    12    4   44 1
    13    4   45 1
    14    5    6 1
    15    5   46 1
    16    5   47 1
    17    6    7 1
    18    6    9 1
    19    7    8 1
    20    7   48 1
    21    7   49 1
    22    8   50 1
    23    8   51 1
    24    9   10 1
    25    9   52 1
    26    9   53 1
    27   10   15 ar
    28   10   11 ar
    29   11   12 ar
    30   11   54 1
    31   12   13 ar
    32   12   55 1
    33   13   14 ar
    34   13   20 1
    35   14   15 ar
    36   14   56 1
    37   15   16 1
    38   16   17 1
    39   16   18 1
    40   16   19 1
    41   20   21 am
    42   20   57 1
    43   21   22 2
    44   21   23 am
    45   23   24 1
    46   23   58 1
    47   24   29 ar
    48   24   25 ar
    49   25   26 ar
    50   25   59 1
    51   26   27 ar
    52   26   60 1
    53   27   28 ar
    54   27   30 1
    55   28   29 ar
    56   28   61 1
    57   29   62 1
    58   30   31 1
    59   31   36 ar
    60   31   32 ar
    61   32   33 ar
    62   32   63 1
    63   33   34 ar
    64   33   37 1
    65   34   35 ar
    66   35   36 ar
    67   35   64 1
    68   37   38 1
    69   37   65 1
    70   38   66 1
    71   38   67 1
    72   38   68 1
@<TRIPOS>MOLECULE
CHEMBL574738__1
   69    72     0     0     0
SMALL
USER_CHARGES

@<TRIPOS>ATOM
      1 C1          0.0759    1.5438    0.6037 C.3       1 <0>        -0.1550
      2 C2          0.0819    0.0240    0.4269 C.3       1 <0>         0.0497
      3 N1         -1.3011   -0.4668    0.3613 N.3       1 <0>        -0.5383
      4 C3         -1.9905   -0.2720    1.6446 C.3       1 <0>         0.0216
      5 C4         -3.4418   -0.7401    1.5167 C.3       1 <0>        -0.0034
      6 N2         -3.4673   -2.1590    1.1380 N.4       1 <0>        -0.3925
      7 C5         -2.7968   -2.3340   -0.1571 C.3       1 <0>        -0.0069
      8 C6         -1.3401   -1.8792   -0.0432 C.3       1 <0>         0.0266
      9 C7         -4.8606   -2.6126    1.0329 C.3       1 <0>         0.0216
     10 C8         -4.8877   -4.0989    0.7859 C.ar      1 <0>        -0.1314
     11 C9         -5.0212   -4.5819   -0.5031 C.ar      1 <0>        -0.0646
     12 C10        -5.0460   -5.9433   -0.7329 C.ar      1 <0>        -0.0851
     13 C11        -4.9367   -6.8279    0.3323 C.ar      1 <0>         0.2104
     14 C12        -4.8028   -6.3399    1.6253 C.ar      1 <0>        -0.0958
     15 C13        -4.7734   -4.9769    1.8479 C.ar      1 <0>        -0.1409
     16 C14        -4.6219   -4.4463    3.2502 C.3       1 <0>         0.5070
     17 F1         -4.6433   -5.5117    4.1567 F         1 <0>        -0.1547
     18 F2         -3.4060   -3.7635    3.3616 F         1 <0>        -0.1851
     19 F3         -5.6759   -3.5713    3.5341 F         1 <0>        -0.1640
     20 N3         -4.9619   -8.2081    0.1029 N.am      1 <0>        -0.6837
     21 C15        -4.4196   -8.7143   -1.0223 C.2       1 <0>         0.7086
     22 O1         -3.8266   -7.9843   -1.7931 O.2       1 <0>        -0.5502
     23 N4         -4.5345  -10.0295   -1.2932 N.am      1 <0>        -0.6719
     24 C16        -3.8805  -10.5754   -2.4057 C.ar      1 <0>         0.1552
     25 C17        -2.6449  -10.0782   -2.7980 C.ar      1 <0>        -0.1020
     26 C18        -2.0009  -10.6166   -3.8944 C.ar      1 <0>        -0.0924
     27 C19        -2.5883  -11.6538   -4.6042 C.ar      1 <0>         0.0887
     28 C20        -3.8231  -12.1507   -4.2129 C.ar      1 <0>        -0.0905
     29 C21        -4.4651  -11.6176   -3.1127 C.ar      1 <0>        -0.1241
     30 O2         -1.9539  -12.1832   -5.6840 O.3       1 <0>        -0.2421
     31 C22        -0.8993  -13.0053   -5.4625 C.ar      1 <0>         0.3838
     32 C23        -0.1485  -13.4903   -6.5263 C.ar      1 <0>        -0.3084
     33 C24         0.9254  -14.3313   -6.2467 C.ar      1 <0>         0.4604
     34 N5          1.1921  -14.6382   -4.9788 N.ar      1 <0>        -0.5919
     35 C25         0.4556  -14.1572   -3.9982 C.ar      1 <0>         0.3765
     36 N6         -0.5651  -13.3548   -4.2232 N.ar      1 <0>        -0.6028
     37 N7          1.7048  -14.8418   -7.2729 N.pl3     1 <0>        -0.7101
     38 C26         1.4012  -14.4974   -8.6641 C.3       1 <0>         0.0876
     39 H1          1.1021    1.9080    0.6524 H         1 <0>         0.0710
     40 H2         -0.4339    2.0059   -0.2417 H         1 <0>         0.0692
     41 H3         -0.4448    1.8002    1.5263 H         1 <0>         0.0560
     42 H4          0.6026   -0.2324   -0.4957 H         1 <0>         0.0890
     43 H5          0.5917   -0.4381    1.2723 H         1 <0>         0.0460
     44 H6         -1.4883   -0.8519    2.4189 H         1 <0>         0.0601
     45 H7         -1.9714    0.7847    1.9111 H         1 <0>         0.1280
     46 H8         -3.9511   -0.6097    2.4716 H         1 <0>         0.1352
     47 H9         -3.9476   -0.1508    0.7518 H         1 <0>         0.1417
     48 H10        -2.8278   -3.3853   -0.4432 H         1 <0>         0.1337
     49 H11        -3.3058   -1.7365   -0.9134 H         1 <0>         0.1410
     50 H12        -0.8464   -1.9950   -1.0080 H         1 <0>         0.1252
     51 H13        -0.8272   -2.4856    0.7034 H         1 <0>         0.0590
     52 H14        -5.3865   -2.3888    1.9611 H         1 <0>         0.1450
     53 H15        -5.3489   -2.0978    0.2055 H         1 <0>         0.1515
     54 H16        -5.1065   -3.8935   -1.3309 H         1 <0>         0.1522
     55 H17        -5.1506   -6.3199   -1.7397 H         1 <0>         0.1607
     56 H18        -4.7176   -7.0252    2.4556 H         1 <0>         0.1562
     57 H19        -5.3697   -8.8006    0.7538 H         1 <0>         0.4195
     58 H20        -5.0700  -10.5982   -0.7181 H         1 <0>         0.4141
     59 H21        -2.1878   -9.2703   -2.2459 H         1 <0>         0.1387
     60 H22        -1.0398  -10.2299   -4.1996 H         1 <0>         0.1305
     61 H23        -4.2803  -12.9577   -4.7663 H         1 <0>         0.1381
     62 H24        -5.4240  -12.0080   -2.8052 H         1 <0>         0.1366
     63 H25        -0.3919  -13.2222   -7.5438 H         1 <0>         0.1492
     64 H26         0.6976  -14.4252   -2.9804 H         1 <0>         0.2009
     65 H27         2.4512  -15.4270   -7.0699 H         1 <0>         0.4139
     66 H28         0.3926  -14.8302   -8.9090 H         1 <0>         0.0630
     67 H29         1.4691  -13.4173   -8.7942 H         1 <0>         0.0624
     68 H30         2.1162  -14.9885   -9.3243 H         1 <0>         0.0869
     69 H31        -2.9890   -2.7030    1.8403 H         1 <0>         0.4158
@<TRIPOS>BOND
     1    1    2 1
     2    1   39 1
     3    1   40 1
     4    1   41 1
     5    2    3 1
     6    2   42 1
     7    2   43 1
     8    3    8 1
     9    3    4 1
    10    4    5 1
    11    4   44 1
    12    4   45 1
    13    5    6 1
    14    5   46 1
    15    5   47 1
    16    6    7 1
    17    6    9 1
    18    6   69 1
    19    7    8 1
    20    7   48 1
    21    7   49 1
    22    8   50 1
    23    8   51 1
    24    9   10 1
    25    9   52 1
    26    9   53 1
    27   10   15 ar
    28   10   11 ar
    29   11   12 ar
    30   11   54 1
    31   12   13 ar
    32   12   55 1
    33   13   14 ar
    34   13   20 1
    35   14   15 ar
    36   14   56 1
    37   15   16 1
    38   16   17 1
    39   16   18 1
    40   16   19 1
    41   20   21 am
    42   20   57 1
    43   21   22 2
    44   21   23 am
    45   23   24 1
    46   23   58 1
    47   24   29 ar
    48   24   25 ar
    49   25   26 ar
    50   25   59 1
    51   26   27 ar
    52   26   60 1
    53   27   28 ar
    54   27   30 1
    55   28   29 ar
    56   28   61 1
    57   29   62 1
    58   30   31 1
    59   31   36 ar
    60   31   32 ar
    61   32   33 ar
    62   32   63 1
    63   33   34 ar
    64   33   37 1
    65   34   35 ar
    66   35   36 ar
    67   35   64 1
    68   37   38 1
    69   37   65 1
    70   38   66 1
    71   38   67 1
    72   38   68 1
@<TRIPOS>MOLECULE
CHEMBL485323
   51    54     0     0     0
SMALL
USER_CHARGES

@<TRIPOS>ATOM
      1 C1          0.1711    1.3761    0.1670 C.3       1 <0>         0.0778
      2 N1          0.1469   -0.0882    0.1286 N.am      1 <0>        -0.7057
      3 C2          0.7201   -0.7449   -0.8993 C.2       1 <0>         0.4975
      4 O1          1.2560   -0.1237   -1.7925 O.2       1 <0>        -0.5261
      5 C3          0.6952   -2.2512   -0.9388 C.3       1 <0>        -0.0311
      6 N2          1.3805   -2.7207   -2.1503 N.4       1 <0>        -0.3715
      7 C4          0.6337   -2.2804   -3.3348 C.3       1 <0>        -0.0110
      8 C5          1.3858   -2.6969   -4.6006 C.3       1 <0>        -0.1531
      9 C6          1.5302   -4.2213   -4.6237 C.3       1 <0>         0.1567
     10 C7          2.2448   -4.6760   -3.3479 C.3       1 <0>        -0.1606
     11 C8          1.4609   -4.1861   -2.1285 C.3       1 <0>        -0.0013
     12 N3          2.3153   -4.6214   -5.7941 N.pl3     1 <0>        -0.6974
     13 C9          2.1630   -5.8887   -6.3293 C.ar      1 <0>         0.5756
     14 N4          1.2980   -6.7248   -5.7727 N.ar      1 <0>        -0.5827
     15 C10         1.1213   -7.9468   -6.2541 C.ar      1 <0>         0.2052
     16 C11         1.8514   -8.3531   -7.3533 C.ar      1 <0>        -0.3011
     17 C12         2.7595   -7.4488   -7.9227 C.ar      1 <0>         0.3235
     18 N5          2.8807   -6.2321   -7.3866 N.ar      1 <0>        -0.5612
     19 C13         3.5624   -7.8332   -9.0960 C.2       1 <0>        -0.0794
     20 C14         4.3840   -7.0110   -9.8373 C.2       1 <0>         0.1242
     21 N6          4.9294   -7.7336  -10.8088 N.2       1 <0>        -0.4931
     22 C15         4.4971   -8.9880  -10.7294 C.2       1 <0>         0.2491
     23 N7          3.6437   -9.0866   -9.6640 N.pl3     1 <0>        -0.3411
     24 C16         3.0587  -10.2767   -9.3525 C.2       1 <0>         0.0400
     25 C17         3.3131  -11.3818  -10.0871 C.2       1 <0>        -0.1271
     26 C18         4.1864  -11.3149  -11.1834 C.2       1 <0>        -0.0889
     27 C19         4.7694  -10.1282  -11.5092 C.2       1 <0>        -0.0790
     28 H1          1.2046    1.7223    0.1770 H         1 <0>         0.0731
     29 H2         -0.3359    1.7711   -0.7133 H         1 <0>         0.0731
     30 H3         -0.3374    1.7245    1.0660 H         1 <0>         0.0918
     31 H4         -0.2817   -0.5851    0.8430 H         1 <0>         0.4134
     32 H5          1.2022   -2.6462   -0.0584 H         1 <0>         0.1613
     33 H6         -0.3383   -2.5974   -0.9487 H         1 <0>         0.1606
     34 H7         -0.3547   -2.7400   -3.3322 H         1 <0>         0.1296
     35 H8          0.5290   -1.1956   -3.3153 H         1 <0>         0.1519
     36 H9          0.8289   -2.3707   -5.4789 H         1 <0>         0.1200
     37 H10         2.3743   -2.2376   -4.6044 H         1 <0>         0.0961
     38 H11         0.5427   -4.6803   -4.6716 H         1 <0>         0.1086
     39 H12         2.3018   -5.7643   -3.3308 H         1 <0>         0.1185
     40 H13         3.2512   -4.2578   -3.3256 H         1 <0>         0.0902
     41 H14         1.9668   -4.5083   -1.2184 H         1 <0>         0.1351
     42 H15         0.4549   -4.6051   -2.1516 H         1 <0>         0.1351
     43 H16         2.9419   -3.9981   -6.1939 H         1 <0>         0.4193
     44 H17         0.4136   -8.6184   -5.7910 H         1 <0>         0.1734
     45 H18         1.7263   -9.3438   -7.7646 H         1 <0>         0.1450
     46 H19         4.5544   -5.9596   -9.6589 H         1 <0>         0.1928
     47 H20         2.3854  -10.3376   -8.5103 H         1 <0>         0.1710
     48 H21         2.8431  -12.3194   -9.8296 H         1 <0>         0.1593
     49 H22         4.3900  -12.1987  -11.7698 H         1 <0>         0.1520
     50 H23         5.4445  -10.0651  -12.3498 H         1 <0>         0.1604
     51 H24         2.3121   -2.3342   -2.1797 H         1 <0>         0.4300
@<TRIPOS>BOND
     1    1    2 1
     2    1   28 1
     3    1   29 1
     4    1   30 1
     5    2    3 am
     6    2   31 1
     7    3    4 2
     8    3    5 1
     9    5    6 1
    10    5   32 1
    11    5   33 1
    12    6   11 1
    13    6    7 1
    14    6   51 1
    15    7    8 1
    16    7   34 1
    17    7   35 1
    18    8    9 1
    19    8   36 1
    20    8   37 1
    21    9   10 1
    22    9   12 1
    23    9   38 1
    24   10   11 1
    25   10   39 1
    26   10   40 1
    27   11   41 1
    28   11   42 1
    29   12   13 1
    30   12   43 1
    31   13   18 ar
    32   13   14 ar
    33   14   15 ar
    34   15   16 ar
    35   15   44 1
    36   16   17 ar
    37   16   45 1
    38   17   18 ar
    39   17   19 1
    40   19   23 1
    41   19   20 2
    42   20   21 1
    43   20   46 1
    44   21   22 2
    45   22   27 1
    46   22   23 1
    47   23   24 1
    48   24   25 2
    49   24   47 1
    50   25   26 1
    51   25   48 1
    52   26   27 2
    53   26   49 1
    54   27   50 1
@<TRIPOS>MOLECULE
CHEMBL485323__1
   50    53     0     0     0
SMALL
USER_CHARGES

@<TRIPOS>ATOM
      1 C1         -0.2546    1.3757    0.0935 C.3       1 <0>         0.0876
      2 N1         -0.1854   -0.0874    0.0637 N.am      1 <0>        -0.7393
      3 C2          0.4301   -0.7534    1.0607 C.2       1 <0>         0.5106
      4 O1          0.9267   -0.1415    1.9826 O.2       1 <0>        -0.5181
      5 C3          0.5013   -2.2584    1.0301 C.3       1 <0>         0.0361
      6 N2          1.2171   -2.7391    2.2194 N.3       1 <0>        -0.5225
      7 C4          2.6233   -2.3169    2.1937 C.3       1 <0>         0.0562
      8 C5          3.2988   -2.7080    3.5101 C.3       1 <0>        -0.1220
      9 C6          3.2052   -4.2251    3.6952 C.3       1 <0>         0.1616
     10 C7          1.7328   -4.6445    3.6698 C.3       1 <0>        -0.1243
     11 C8          1.1027   -4.1974    2.3488 C.3       1 <0>         0.0607
     12 N3          3.7987   -4.5989    4.9813 N.pl3     1 <0>        -0.6902
     13 C9          4.3035   -5.8744    5.1660 C.ar      1 <0>         0.5825
     14 N4          4.2460   -6.7424    4.1658 N.ar      1 <0>        -0.5747
     15 C10         4.7181   -7.9733    4.3004 C.ar      1 <0>         0.2058
     16 C11         5.2784   -8.3552    5.5030 C.ar      1 <0>        -0.3142
     17 C12         5.3267   -7.4175    6.5446 C.ar      1 <0>         0.3140
     18 N5          4.8357   -6.1938    6.3345 N.ar      1 <0>        -0.5659
     19 C13         5.9141   -7.7749    7.8470 C.2       1 <0>        -0.0641
     20 C14         6.1520   -6.9237    8.9050 C.2       1 <0>         0.1176
     21 N6          6.6889   -7.6285    9.8940 N.2       1 <0>        -0.4946
     22 C15         6.8093   -8.8993    9.5232 C.2       1 <0>         0.2413
     23 N7          6.3278   -9.0271    8.2484 N.pl3     1 <0>        -0.3421
     24 C16         6.3286  -10.2385    7.6256 C.2       1 <0>         0.0454
     25 C17         6.8009  -11.3363    8.2561 C.2       1 <0>        -0.1342
     26 C18         7.2977  -11.2395    9.5648 C.2       1 <0>        -0.0933
     27 C19         7.3103  -10.0316   10.1933 C.2       1 <0>        -0.0797
     28 H1          0.7547    1.7871    0.1011 H         1 <0>         0.0595
     29 H2         -0.7857    1.7324   -0.7890 H         1 <0>         0.0757
     30 H3         -0.7844    1.6962    0.9906 H         1 <0>         0.0605
     31 H4         -0.5826   -0.5768   -0.6736 H         1 <0>         0.4016
     32 H5         -0.5081   -2.6698    1.0225 H         1 <0>         0.1060
     33 H6          1.0310   -2.5789    0.1330 H         1 <0>         0.0652
     34 H7          3.1341   -2.8058    1.3641 H         1 <0>         0.0320
     35 H8          2.6757   -1.2357    2.0658 H         1 <0>         0.0987
     36 H9          4.3465   -2.4085    3.4845 H         1 <0>         0.0742
     37 H10         2.7971   -2.2086    4.3390 H         1 <0>         0.0806
     38 H11         3.7401   -4.7243    2.8873 H         1 <0>         0.0896
     39 H12         1.6617   -5.7286    3.7584 H         1 <0>         0.0734
     40 H13         1.2065   -4.1756    4.5012 H         1 <0>         0.0736
     41 H14         0.0506   -4.4819    2.3336 H         1 <0>         0.0794
     42 H15         1.6206   -4.6774    1.5185 H         1 <0>         0.0389
     43 H16         3.8379   -3.9526    5.7036 H         1 <0>         0.4147
     44 H17         4.6648   -8.6709    3.4776 H         1 <0>         0.1691
     45 H18         5.6700   -9.3526    5.6385 H         1 <0>         0.1395
     46 H19         5.9389   -5.8651    8.9257 H         1 <0>         0.1935
     47 H20         5.9478  -10.3225    6.6184 H         1 <0>         0.1720
     48 H21         6.7956  -12.2911    7.7514 H         1 <0>         0.1567
     49 H22         7.6744  -12.1174   10.0686 H         1 <0>         0.1484
     50 H23         7.6888   -9.9454   11.2011 H         1 <0>         0.1572
@<TRIPOS>BOND
     1    1    2 1
     2    1   28 1
     3    1   29 1
     4    1   30 1
     5    2    3 am
     6    2   31 1
     7    3    4 2
     8    3    5 1
     9    5    6 1
    10    5   32 1
    11    5   33 1
    12    6   11 1
    13    6    7 1
    14    7    8 1
    15    7   34 1
    16    7   35 1
    17    8    9 1
    18    8   36 1
    19    8   37 1
    20    9   10 1
    21    9   12 1
    22    9   38 1
    23   10   11 1
    24   10   39 1
    25   10   40 1
    26   11   41 1
    27   11   42 1
    28   12   13 1
    29   12   43 1
    30   13   18 ar
    31   13   14 ar
    32   14   15 ar
    33   15   16 ar
    34   15   44 1
    35   16   17 ar
    36   16   45 1
    37   17   18 ar
    38   17   19 1
    39   19   23 1
    40   19   20 2
    41   20   21 1
    42   20   46 1
    43   21   22 2
    44   22   27 1
    45   22   23 1
    46   23   24 1
    47   24   25 2
    48   24   47 1
    49   25   26 1
    50   25   48 1
    51   26   27 2
    52   26   49 1
    53   27   50 1
@<TRIPOS>MOLECULE
CHEMBL485323__2
   52    55     0     0     0
SMALL
USER_CHARGES

@<TRIPOS>ATOM
      1 C1          0.1711    1.3761    0.1670 C.3       1 <0>         0.0768
      2 N1          0.1469   -0.0882    0.1286 N.am      1 <0>        -0.7031
      3 C2          0.7201   -0.7449   -0.8993 C.2       1 <0>         0.4972
      4 O1          1.2560   -0.1237   -1.7925 O.2       1 <0>        -0.5287
      5 C3          0.6952   -2.2512   -0.9388 C.3       1 <0>        -0.0317
      6 N2          1.3805   -2.7207   -2.1503 N.4       1 <0>        -0.3717
      7 C4          0.6337   -2.2804   -3.3348 C.3       1 <0>        -0.0123
      8 C5          1.3858   -2.6969   -4.6006 C.3       1 <0>        -0.1528
      9 C6          1.5302   -4.2213   -4.6237 C.3       1 <0>         0.1517
     10 C7          2.2448   -4.6760   -3.3479 C.3       1 <0>        -0.1597
     11 C8          1.4609   -4.1861   -2.1285 C.3       1 <0>        -0.0023
     12 N3          2.3153   -4.6214   -5.7941 N.pl3     1 <0>        -0.6891
     13 C9          2.1630   -5.8887   -6.3293 C.ar      1 <0>         0.5854
     14 N4          1.2980   -6.7248   -5.7727 N.ar      1 <0>        -0.5594
     15 C10         1.1213   -7.9468   -6.2541 C.ar      1 <0>         0.2212
     16 C11         1.8514   -8.3531   -7.3533 C.ar      1 <0>        -0.2844
     17 C12         2.7595   -7.4488   -7.9227 C.ar      1 <0>         0.2863
     18 N5          2.8807   -6.2321   -7.3866 N.ar      1 <0>        -0.5547
     19 C13         3.5624   -7.8332   -9.0960 C.2       1 <0>         0.0145
     20 C14         4.3840   -7.0110   -9.8373 C.2       1 <0>         0.1447
     21 N6          4.9294   -7.7336  -10.8088 N.pl3     1 <0>        -0.5019
     22 C15         4.4971   -8.9880  -10.7294 C.cat     1 <0>         0.3065
     23 N7          3.6437   -9.0866   -9.6640 N.pl3     1 <0>        -0.3117
     24 C16         3.0587  -10.2767   -9.3525 C.2       1 <0>         0.0686
     25 C17         3.3131  -11.3818  -10.0871 C.2       1 <0>        -0.0972
     26 C18         4.1864  -11.3149  -11.1834 C.2       1 <0>        -0.0140
     27 C19         4.7694  -10.1282  -11.5092 C.2       1 <0>        -0.1140
     28 H1          1.2046    1.7223    0.1770 H         1 <0>         0.0741
     29 H2         -0.3359    1.7711   -0.7133 H         1 <0>         0.0738
     30 H3         -0.3374    1.7245    1.0660 H         1 <0>         0.0936
     31 H4         -0.2817   -0.5851    0.8430 H         1 <0>         0.4142
     32 H5          1.2022   -2.6462   -0.0584 H         1 <0>         0.1628
     33 H6         -0.3383   -2.5974   -0.9487 H         1 <0>         0.1616
     34 H7         -0.3547   -2.7400   -3.3322 H         1 <0>         0.1311
     35 H8          0.5290   -1.1956   -3.3153 H         1 <0>         0.1550
     36 H9          0.8289   -2.3707   -5.4789 H         1 <0>         0.1208
     37 H10         2.3743   -2.2376   -4.6044 H         1 <0>         0.0974
     38 H11         0.5427   -4.6803   -4.6716 H         1 <0>         0.1123
     39 H12         2.3018   -5.7643   -3.3308 H         1 <0>         0.1176
     40 H13         3.2512   -4.2578   -3.3256 H         1 <0>         0.0918
     41 H14         1.9668   -4.5083   -1.2184 H         1 <0>         0.1379
     42 H15         0.4549   -4.6051   -2.1516 H         1 <0>         0.1365
     43 H16         2.9419   -3.9981   -6.1939 H         1 <0>         0.4223
     44 H17         0.4136   -8.6184   -5.7910 H         1 <0>         0.1856
     45 H18         1.7263   -9.3438   -7.7646 H         1 <0>         0.1487
     46 H19         4.5544   -5.9596   -9.6589 H         1 <0>         0.2389
     47 H20         2.3854  -10.3376   -8.5103 H         1 <0>         0.2030
     48 H21         2.8431  -12.3194   -9.8296 H         1 <0>         0.1895
     49 H22         4.3900  -12.1987  -11.7698 H         1 <0>         0.1817
     50 H23         5.4445  -10.0651  -12.3498 H         1 <0>         0.1864
     51 H24         2.3121   -2.3342   -2.1797 H         1 <0>         0.4304
     52 H25         5.5490   -7.3971  -11.4750 H         1 <0>         0.4691
@<TRIPOS>BOND
     1    1    2 1
     2    1   28 1
     3    1   29 1
     4    1   30 1
     5    2    3 am
     6    2   31 1
     7    3    4 2
     8    3    5 1
     9    5    6 1
    10    5   32 1
    11    5   33 1
    12    6   11 1
    13    6    7 1
    14    6   51 1
    15    7    8 1
    16    7   34 1
    17    7   35 1
    18    8    9 1
    19    8   36 1
    20    8   37 1
    21    9   10 1
    22    9   12 1
    23    9   38 1
    24   10   11 1
    25   10   39 1
    26   10   40 1
    27   11   41 1
    28   11   42 1
    29   12   13 1
    30   12   43 1
    31   13   18 ar
    32   13   14 ar
    33   14   15 ar
    34   15   16 ar
    35   15   44 1
    36   16   17 ar
    37   16   45 1
    38   17   18 ar
    39   17   19 1
    40   19   23 1
    41   19   20 2
    42   20   21 1
    43   20   46 1
    44   21   22 2
    45   21   52 1
    46   22   27 1
    47   22   23 1
    48   23   24 1
    49   24   25 2
    50   24   47 1
    51   25   26 1
    52   25   48 1
    53   26   27 2
    54   26   49 1
    55   27   50 1
@<TRIPOS>MOLECULE
CHEMBL193494
   65    69     0     0     0
SMALL
USER_CHARGES

@<TRIPOS>ATOM
      1 C1         -0.1346    1.7777    1.1289 C.ar      1 <0>        -0.1147
      2 C2          1.0259    2.5007    1.3324 C.ar      1 <0>        -0.1168
      3 C3          2.2565    1.8908    1.1763 C.ar      1 <0>        -0.1091
      4 C4          2.3267    0.5577    0.8173 C.ar      1 <0>        -0.0892
      5 C5          1.1662   -0.1655    0.6147 C.ar      1 <0>        -0.1168
      6 C6         -0.0644    0.4447    0.7694 C.ar      1 <0>        -0.1154
      7 C7          3.6684   -0.1069    0.6462 C.3       1 <0>        -0.0991
      8 C8          4.1140   -0.7074    1.9810 C.3       1 <0>         0.1504
      9 H1          3.3406   -1.3791    2.3535 H         1 <0>         0.1097
     10 C9          5.4142   -1.4883    1.7802 C.3       1 <0>         0.0792
     11 N1          5.9043   -1.9625    3.0768 N.pl3     1 <0>        -0.6725
     12 C10         7.0797   -2.7016    3.1477 C.ar      1 <0>         0.4298
     13 C11         7.7913   -2.9910    1.9852 C.ar      1 <0>        -0.1354
     14 C12         8.9650   -3.7357    2.1069 C.ar      1 <0>         0.0837
     15 C13         9.3513   -4.1449    3.4000 C.ar      1 <0>         0.1860
     16 N2          8.6007   -3.8156    4.4432 N.ar      1 <0>        -0.1867
     17 N3          7.5258   -3.1259    4.3222 N.ar      1 <0>        -0.3476
     18 C14        10.5854   -4.9369    3.5920 C.ar      1 <0>        -0.0804
     19 C15        10.8027   -6.0855    2.8493 C.ar      1 <0>        -0.0460
     20 C16        11.9602   -6.8347    3.0244 C.ar      1 <0>        -0.1285
     21 C17        12.9104   -6.4632    3.9273 C.ar      1 <0>        -0.0535
     22 C18        12.7309   -5.3049    4.7028 C.ar      1 <0>        -0.0573
     23 C19        11.5604   -4.5259    4.5330 C.ar      1 <0>        -0.0109
     24 C20        11.3855   -3.3671    5.3027 C.ar      1 <0>        -0.1260
     25 C21        12.3442   -3.0014    6.1987 C.ar      1 <0>        -0.0879
     26 C22        13.4994   -3.7628    6.3624 C.ar      1 <0>        -0.1145
     27 C23        13.6962   -4.9005    5.6414 C.ar      1 <0>        -0.0887
     28 C24         9.7779   -4.0850    0.9175 C.ar      1 <0>        -0.0525
     29 C25        11.1315   -3.7419    0.8465 C.ar      1 <0>        -0.1267
     30 C26        11.8512   -4.0864   -0.2793 C.ar      1 <0>         0.1164
     31 N4         11.2785   -4.7296   -1.2786 N.ar      1 <0>        -0.4568
     32 C27        10.0048   -5.0718   -1.2517 C.ar      1 <0>         0.1134
     33 C28         9.2136   -4.7719   -0.1618 C.ar      1 <0>        -0.1419
     34 N5          4.3351    0.3682    2.9508 N.am      1 <0>        -0.7342
     35 C29         5.2530    1.3229    2.7006 C.2       1 <0>         0.5150
     36 O1          5.8959    1.2915    1.6727 O.2       1 <0>        -0.5041
     37 C30         5.4805    2.4293    3.6982 C.3       1 <0>         0.0551
     38 O2          6.4945    3.3099    3.2099 O.3       1 <0>        -0.5473
     39 H2         -1.0961    2.2530    1.2552 H         1 <0>         0.1249
     40 H3          0.9710    3.5422    1.6129 H         1 <0>         0.1234
     41 H4          3.1632    2.4559    1.3346 H         1 <0>         0.1143
     42 H5          1.2211   -1.2069    0.3339 H         1 <0>         0.1216
     43 H6         -0.9711   -0.1202    0.6108 H         1 <0>         0.1250
     44 H7          3.5896   -0.8978   -0.0997 H         1 <0>         0.0901
     45 H8          4.4001    0.6311    0.3174 H         1 <0>         0.1037
     46 H9          5.2286   -2.3416    1.1278 H         1 <0>         0.1051
     47 H10         6.1616   -0.8386    1.3248 H         1 <0>         0.1172
     48 H11         5.4087   -1.7608    3.8859 H         1 <0>         0.4224
     49 H12         7.4452   -2.6501    1.0207 H         1 <0>         0.1970
     50 H13        10.0651   -6.4025    2.1269 H         1 <0>         0.1280
     51 H14        12.1088   -7.7271    2.4347 H         1 <0>         0.1388
     52 H15        13.8026   -7.0598    4.0476 H         1 <0>         0.1411
     53 H16        10.4952   -2.7672    5.1854 H         1 <0>         0.1148
     54 H17        12.2069   -2.1083    6.7903 H         1 <0>         0.1284
     55 H18        14.2449   -3.4511    7.0790 H         1 <0>         0.1328
     56 H19        14.5962   -5.4815    5.7792 H         1 <0>         0.1379
     57 H20        11.6066   -3.2147    1.6606 H         1 <0>         0.1426
     58 H21        12.8973   -3.8256   -0.3434 H         1 <0>         0.1698
     59 H22         9.5767   -5.5979   -2.0922 H         1 <0>         0.1706
     60 H23         8.1726   -5.0592   -0.1446 H         1 <0>         0.1448
     61 H24         3.8210    0.3933    3.7729 H         1 <0>         0.4086
     62 H25         4.5542    2.9857    3.8413 H         1 <0>         0.0829
     63 H26         5.7980    2.0015    4.6492 H         1 <0>         0.0751
     64 H27         6.6934    4.0477    3.8024 H         1 <0>         0.3945
     65 H28         7.0176   -2.9103    5.1198 H         1 <0>         0.4664
@<TRIPOS>BOND
     1    1    6 ar
     2    1    2 ar
     3    1   39 1
     4    2    3 ar
     5    2   40 1
     6    3    4 ar
     7    3   41 1
     8    4    5 ar
     9    4    7 1
    10    5    6 ar
    11    5   42 1
    12    6   43 1
    13    7    8 1
    14    7   44 1
    15    7   45 1
    16    8    9 1
    17    8   10 1
    18    8   34 1
    19   10   46 1
    20   10   47 1
    21   10   11 1
    22   11   12 1
    23   11   48 1
    24   12   13 ar
    25   12   17 ar
    26   13   49 1
    27   13   14 ar
    28   14   28 1
    29   14   15 ar
    30   15   18 1
    31   15   16 ar
    32   16   17 ar
    33   17   65 1
    34   18   23 ar
    35   18   19 ar
    36   19   20 ar
    37   19   50 1
    38   20   21 ar
    39   20   51 1
    40   21   22 ar
    41   21   52 1
    42   22   27 ar
    43   22   23 ar
    44   23   24 ar
    45   24   25 ar
    46   24   53 1
    47   25   26 ar
    48   25   54 1
    49   26   27 ar
    50   26   55 1
    51   27   56 1
    52   28   33 ar
    53   28   29 ar
    54   29   30 ar
    55   29   57 1
    56   30   31 ar
    57   30   58 1
    58   31   32 ar
    59   32   33 ar
    60   32   59 1
    61   33   60 1
    62   34   35 am
    63   34   61 1
    64   35   36 2
    65   35   37 1
    66   37   38 1
    67   37   62 1
    68   37   63 1
    69   38   64 1
@<TRIPOS>MOLECULE
CHEMBL193494__1
   65    69     0     0     0
SMALL
USER_CHARGES

@<TRIPOS>ATOM
      1 C1          0.1350    1.5623   -0.0937 C.ar      1 <0>        -0.1159
      2 C2          1.3021    2.2855    0.0664 C.ar      1 <0>        -0.1171
      3 C3          2.5223    1.6360    0.0736 C.ar      1 <0>        -0.1091
      4 C4          2.5754    0.2631   -0.0788 C.ar      1 <0>        -0.0874
      5 C5          1.4082   -0.4603   -0.2379 C.ar      1 <0>        -0.1170
      6 C6          0.1881    0.1894   -0.2465 C.ar      1 <0>        -0.1158
      7 C7          3.9057   -0.4449   -0.0719 C.3       1 <0>        -0.0994
      8 C8          4.2621   -0.8469    1.3607 C.3       1 <0>         0.1521
      9 H1          3.4516   -1.4405    1.7838 H         1 <0>         0.1082
     10 C9          5.5495   -1.6736    1.3532 C.3       1 <0>         0.0837
     11 N1          5.9557   -1.9573    2.7318 N.pl3     1 <0>        -0.6651
     12 C10         7.1050   -2.6995    2.9791 C.ar      1 <0>         0.4075
     13 C11         7.8734   -3.1685    1.9151 C.ar      1 <0>        -0.0812
     14 C12         9.0180   -3.9082    2.2132 C.ar      1 <0>         0.0369
     15 C13         9.3195   -4.1310    3.5732 C.ar      1 <0>         0.1993
     16 N2          8.5202   -3.6395    4.5106 N.ar      1 <0>        -0.2187
     17 N3          7.4723   -2.9559    4.2269 N.ar      1 <0>        -0.3067
     18 C14        10.5193   -4.9085    3.9514 C.ar      1 <0>        -0.1292
     19 C15        11.5773   -4.2923    4.5989 C.ar      1 <0>        -0.0474
     20 C16        12.7081   -5.0166    4.9569 C.ar      1 <0>        -0.1322
     21 C17        12.8087   -6.3475    4.6832 C.ar      1 <0>        -0.0416
     22 C18        11.7589   -7.0133    4.0275 C.ar      1 <0>        -0.0570
     23 C19        10.5965   -6.2922    3.6606 C.ar      1 <0>        -0.0025
     24 C20         9.5475   -6.9588    3.0119 C.ar      1 <0>        -0.1363
     25 C21         9.6556   -8.2908    2.7478 C.ar      1 <0>        -0.0763
     26 C22        10.7955   -9.0033    3.1138 C.ar      1 <0>        -0.1124
     27 C23        11.8385   -8.3857    3.7334 C.ar      1 <0>        -0.0847
     28 C24         9.8874   -4.4422    1.1378 C.ar      1 <0>        -0.0366
     29 C25        11.2522   -4.1405    1.1012 C.ar      1 <0>        -0.1323
     30 C26        12.0251   -4.6591    0.0825 C.ar      1 <0>         0.1154
     31 N4         11.4925   -5.4284   -0.8474 N.ar      1 <0>        -0.4584
     32 C27        10.2100   -5.7371   -0.8496 C.ar      1 <0>         0.1150
     33 C28         9.3663   -5.2661    0.1355 C.ar      1 <0>        -0.1403
     34 N5          4.4598    0.3575    2.1710 N.am      1 <0>        -0.7311
     35 C29         5.4156    1.2463    1.8349 C.2       1 <0>         0.5171
     36 O1          6.1119    1.0491    0.8617 O.2       1 <0>        -0.5080
     37 C30         5.6190    2.4852    2.6684 C.3       1 <0>         0.0549
     38 O2          6.6815    3.2634    2.1137 O.3       1 <0>        -0.5479
     39 H2         -0.8186    2.0692   -0.0948 H         1 <0>         0.1242
     40 H3          1.2606    3.3582    0.1854 H         1 <0>         0.1229
     41 H4          3.4342    2.2012    0.1980 H         1 <0>         0.1145
     42 H5          1.4497   -1.5329   -0.3573 H         1 <0>         0.1214
     43 H6         -0.7238   -0.3757   -0.3713 H         1 <0>         0.1244
     44 H7          3.8457   -1.3370   -0.6953 H         1 <0>         0.0888
     45 H8          4.6740    0.2214   -0.4641 H         1 <0>         0.1030
     46 H9          5.3760   -2.6113    0.8252 H         1 <0>         0.0961
     47 H10         6.3378   -1.1138    0.8500 H         1 <0>         0.1095
     48 H11         5.4229   -1.6273    3.4721 H         1 <0>         0.4239
     49 H12         7.5916   -2.9660    0.8924 H         1 <0>         0.1903
     50 H13        11.5231   -3.2382    4.8277 H         1 <0>         0.1349
     51 H14        13.5216   -4.5156    5.4605 H         1 <0>         0.1439
     52 H15        13.6965   -6.8915    4.9702 H         1 <0>         0.1441
     53 H16         8.6578   -6.4189    2.7232 H         1 <0>         0.1142
     54 H17         8.8461   -8.8018    2.2480 H         1 <0>         0.1320
     55 H18        10.8568  -10.0588    2.8936 H         1 <0>         0.1355
     56 H19        12.7166   -8.9501    4.0105 H         1 <0>         0.1402
     57 H20        11.6948   -3.5108    1.8588 H         1 <0>         0.1394
     58 H21        13.0803   -4.4317    0.0457 H         1 <0>         0.1677
     59 H22         9.8159   -6.3705   -1.6306 H         1 <0>         0.1689
     60 H23         8.3182   -5.5266    0.1300 H         1 <0>         0.1426
     61 H24         3.9029    0.5152    2.9494 H         1 <0>         0.4085
     62 H25         4.7018    3.0742    2.6738 H         1 <0>         0.0819
     63 H26         5.8729    2.1989    3.6890 H         1 <0>         0.0761
     64 H27         6.8682    4.0778    2.6005 H         1 <0>         0.3932
     65 H28         8.7372   -3.7993    5.4424 H         1 <0>         0.4754
@<TRIPOS>BOND
     1    1    6 ar
     2    1    2 ar
     3    1   39 1
     4    2    3 ar
     5    2   40 1
     6    3    4 ar
     7    3   41 1
     8    4    5 ar
     9    4    7 1
    10    5    6 ar
    11    5   42 1
    12    6   43 1
    13    7    8 1
    14    7   44 1
    15    7   45 1
    16    8    9 1
    17    8   10 1
    18    8   34 1
    19   10   11 1
    20   10   46 1
    21   10   47 1
    22   11   12 1
    23   11   48 1
    24   12   17 ar
    25   12   13 ar
    26   13   14 ar
    27   13   49 1
    28   14   15 ar
    29   14   28 1
    30   15   16 ar
    31   15   18 1
    32   16   17 ar
    33   16   65 1
    34   18   23 ar
    35   18   19 ar
    36   19   20 ar
    37   19   50 1
    38   20   21 ar
    39   20   51 1
    40   21   22 ar
    41   21   52 1
    42   22   27 ar
    43   22   23 ar
    44   23   24 ar
    45   24   25 ar
    46   24   53 1
    47   25   26 ar
    48   25   54 1
    49   26   27 ar
    50   26   55 1
    51   27   56 1
    52   28   33 ar
    53   28   29 ar
    54   29   30 ar
    55   29   57 1
    56   30   31 ar
    57   30   58 1
    58   31   32 ar
    59   32   33 ar
    60   32   59 1
    61   33   60 1
    62   34   35 am
    63   34   61 1
    64   35   36 2
    65   35   37 1
    66   37   38 1
    67   37   62 1
    68   37   63 1
    69   38   64 1
@<TRIPOS>MOLECULE
CHEMBL193494__2
   64    68     0     0     0
SMALL
USER_CHARGES

@<TRIPOS>ATOM
      1 C1         -0.1330    1.7803    1.1290 C.ar      1 <0>        -0.1215
      2 C2          1.0266    2.5033    1.3377 C.ar      1 <0>        -0.1186
      3 C3          2.2580    1.8947    1.1821 C.ar      1 <0>        -0.1093
      4 C4          2.3298    0.5630    0.8184 C.ar      1 <0>        -0.0790
      5 C5          1.1702   -0.1602    0.6107 C.ar      1 <0>        -0.1178
      6 C6         -0.0612    0.4487    0.7648 C.ar      1 <0>        -0.1174
      7 C7          3.6722   -0.1003    0.6479 C.3       1 <0>        -0.1012
      8 C8          4.1152   -0.7053    1.9816 C.3       1 <0>         0.1540
      9 H1          3.3413   -1.3788    2.3499 H         1 <0>         0.1012
     10 C9          5.4163   -1.4848    1.7808 C.3       1 <0>         0.1015
     11 N1          5.9038   -1.9634    3.0768 N.pl3     1 <0>        -0.7059
     12 C10         7.0794   -2.7020    3.1476 C.ar      1 <0>         0.3502
     13 C11         7.7970   -2.9819    1.9860 C.ar      1 <0>        -0.1608
     14 C12         8.9707   -3.7260    2.1077 C.ar      1 <0>         0.0046
     15 C13         9.3514   -4.1445    3.3999 C.ar      1 <0>         0.0689
     16 N2          8.5955   -3.8239    4.4416 N.ar      1 <0>        -0.1770
     17 N3          7.5202   -3.1349    4.3207 N.ar      1 <0>        -0.3019
     18 C14        10.5855   -4.9365    3.5919 C.ar      1 <0>        -0.0208
     19 C15        10.8055   -6.0819    2.8451 C.ar      1 <0>        -0.0873
     20 C16        11.9627   -6.8313    3.0206 C.ar      1 <0>        -0.1152
     21 C17        12.9103   -6.4630    3.9275 C.ar      1 <0>        -0.0930
     22 C18        12.7282   -5.3077    4.7069 C.ar      1 <0>        -0.0508
     23 C19        11.5577   -4.5288    4.5372 C.ar      1 <0>        -0.0262
     24 C20        11.3800   -3.3733    5.3111 C.ar      1 <0>        -0.0964
     25 C21        12.3360   -3.0106    6.2112 C.ar      1 <0>        -0.1145
     26 C22        13.4913   -3.7719    6.3749 C.ar      1 <0>        -0.1130
     27 C23        13.6908   -4.9066    5.6498 C.ar      1 <0>        -0.1072
     28 C24         9.7898   -4.0656    0.9196 C.ar      1 <0>        -0.0068
     29 C25        11.1431   -3.7197    0.8574 C.ar      1 <0>        -0.1401
     30 C26        11.8687   -4.0555   -0.2673 C.ar      1 <0>         0.1068
     31 N4         11.3018   -4.6929   -1.2735 N.ar      1 <0>        -0.4769
     32 C27        10.0286   -5.0374   -1.2551 C.ar      1 <0>         0.1039
     33 C28         9.2315   -4.7456   -0.1671 C.ar      1 <0>        -0.1562
     34 N5          4.3335    0.3669    2.9557 N.am      1 <0>        -0.7264
     35 C29         5.2514    1.3230    2.7111 C.2       1 <0>         0.5174
     36 O1          5.8966    1.2957    1.6845 O.2       1 <0>        -0.5088
     37 C30         5.4760    2.4259    3.7131 C.3       1 <0>         0.0558
     38 O2          6.4906    3.3089    3.2303 O.3       1 <0>        -0.5470
     39 H2         -1.0951    2.2546    1.2549 H         1 <0>         0.1212
     40 H3          0.9705    3.5437    1.6218 H         1 <0>         0.1207
     41 H4          3.1639    2.4597    1.3445 H         1 <0>         0.1152
     42 H5          1.2262   -1.2006    0.3262 H         1 <0>         0.1215
     43 H6         -0.9672   -0.1162    0.6021 H         1 <0>         0.1221
     44 H7          3.5955   -0.8885   -0.1010 H         1 <0>         0.0863
     45 H8          4.4042    0.6393    0.3235 H         1 <0>         0.1013
     46 H9          5.2326   -2.3358    1.1249 H         1 <0>         0.0760
     47 H10         6.1644   -0.8330    1.3294 H         1 <0>         0.0923
     48 H11         5.4062   -1.7649    3.8855 H         1 <0>         0.4085
     49 H12         7.4551   -2.6342    1.0224 H         1 <0>         0.1502
     50 H13        10.0701   -6.3962    2.1192 H         1 <0>         0.1200
     51 H14        12.1133   -7.7215    2.4278 H         1 <0>         0.1266
     52 H15        13.8024   -7.0597    4.0480 H         1 <0>         0.1297
     53 H16        10.4896   -2.7734    5.1940 H         1 <0>         0.1252
     54 H17        12.1967   -2.1201    6.8061 H         1 <0>         0.1228
     55 H18        14.2346   -3.4630    7.0950 H         1 <0>         0.1241
     56 H19        14.5905   -5.4878    5.7878 H         1 <0>         0.1286
     57 H20        11.6134   -3.1972    1.6773 H         1 <0>         0.1352
     58 H21        12.9146   -3.7927   -0.3246 H         1 <0>         0.1599
     59 H22         9.6054   -5.5584   -2.1011 H         1 <0>         0.1604
     60 H23         8.1910   -5.0347   -0.1568 H         1 <0>         0.1369
     61 H24         3.8175    0.3887    3.7768 H         1 <0>         0.4049
     62 H25         4.5490    2.9812    3.8561 H         1 <0>         0.0774
     63 H26         5.7916    1.9949    4.6632 H         1 <0>         0.0771
     64 H27         6.6877    4.0446    3.8259 H         1 <0>         0.3887
@<TRIPOS>BOND
     1    1    6 ar
     2    1    2 ar
     3    1   39 1
     4    2    3 ar
     5    2   40 1
     6    3    4 ar
     7    3   41 1
     8    4    5 ar
     9    4    7 1
    10    5    6 ar
    11    5   42 1
    12    6   43 1
    13    7    8 1
    14    7   44 1
    15    7   45 1
    16    8    9 1
    17    8   10 1
    18    8   34 1
    19   10   11 1
    20   10   46 1
    21   10   47 1
    22   11   12 1
    23   11   48 1
    24   12   17 ar
    25   12   13 ar
    26   13   14 ar
    27   13   49 1
    28   14   15 ar
    29   14   28 1
    30   15   16 ar
    31   15   18 1
    32   16   17 ar
    33   18   23 ar
    34   18   19 ar
    35   19   20 ar
    36   19   50 1
    37   20   21 ar
    38   20   51 1
    39   21   22 ar
    40   21   52 1
    41   22   27 ar
    42   22   23 ar
    43   23   24 ar
    44   24   25 ar
    45   24   53 1
    46   25   26 ar
    47   25   54 1
    48   26   27 ar
    49   26   55 1
    50   27   56 1
    51   28   33 ar
    52   28   29 ar
    53   29   30 ar
    54   29   57 1
    55   30   31 ar
    56   30   58 1
    57   31   32 ar
    58   32   33 ar
    59   32   59 1
    60   33   60 1
    61   34   35 am
    62   34   61 1
    63   35   36 2
    64   35   37 1
    65   37   38 1
    66   37   62 1
    67   37   63 1
    68   38   64 1
@<TRIPOS>MOLECULE
CHEMBL364940
   40    43     0     0     0
SMALL
USER_CHARGES

@<TRIPOS>ATOM
      1 C1         -0.0166    1.3699    0.0096 C.ar      1 <0>        -0.0764
      2 C2          1.1572    2.1045    0.0023 C.ar      1 <0>        -0.1195
      3 C3          2.3694    1.4373   -0.0129 C.ar      1 <0>        -0.0388
      4 C4          2.3887    0.0627   -0.0205 C.ar      1 <0>        -0.1572
      5 C5          1.2179   -0.7095   -0.0134 C.ar      1 <0>         0.1254
      6 C6          0.0021   -0.0041    0.0020 C.ar      1 <0>        -0.1197
      7 N1          1.3955   -2.0811   -0.0225 N.pl3     1 <0>        -0.6085
      8 C7          2.6545   -2.6113   -0.0374 C.2       1 <0>         0.2611
      9 C8          3.0385   -3.9533   -0.0487 C.2       1 <0>        -0.1382
     10 C9          4.4277   -4.3004   -0.0638 C.1       1 <0>         0.2766
     11 N2          5.5298   -4.5757   -0.0757 N.1       1 <0>        -0.4152
     12 C10         2.0145   -5.0127   -0.0451 C.ar      1 <0>         0.3138
     13 C11         2.3877   -6.3651   -0.0505 C.ar      1 <0>        -0.2838
     14 C12         1.4023   -7.3159   -0.0470 C.ar      1 <0>         0.2050
     15 N3          0.1312   -6.9385   -0.0385 N.ar      1 <0>        -0.5787
     16 C13        -0.2016   -5.6556   -0.0335 C.ar      1 <0>         0.5855
     17 N4          0.7163   -4.7013   -0.0311 N.ar      1 <0>        -0.6072
     18 N5         -1.5405   -5.3051   -0.0252 N.pl3     1 <0>        -0.6939
     19 C14        -2.5705   -6.3470   -0.0221 C.3       1 <0>         0.1938
     20 C15        -3.9340   -5.7054   -0.0130 C.ar      1 <0>         0.1015
     21 C16        -4.6058   -5.5114   -1.2054 C.ar      1 <0>        -0.1511
     22 C17        -5.8596   -4.9204   -1.1860 C.ar      1 <0>        -0.0759
     23 C18        -6.3933   -4.5447    0.0376 C.ar      1 <0>        -0.1635
     24 C19        -5.6628   -4.7704    1.1887 C.ar      1 <0>         0.0997
     25 N6         -4.4748   -5.3403    1.1329 N.ar      1 <0>        -0.4680
     26 S1          3.6842   -1.1528   -0.0394 S.3       1 <0>         0.0763
     27 H1         -0.9648    1.8866    0.0260 H         1 <0>         0.1387
     28 H2          1.1270    3.1841    0.0081 H         1 <0>         0.1429
     29 H3          3.2952    1.9934   -0.0191 H         1 <0>         0.1411
     30 H4         -0.9301   -0.5494    0.0080 H         1 <0>         0.1323
     31 H5          0.6237   -2.6686   -0.0180 H         1 <0>         0.4329
     32 H6          3.4294   -6.6500   -0.0577 H         1 <0>         0.1417
     33 H7          1.6584   -8.3651   -0.0513 H         1 <0>         0.1695
     34 H8         -1.7970   -4.3696   -0.0215 H         1 <0>         0.4103
     35 H9         -2.4654   -6.9644   -0.9142 H         1 <0>         0.0858
     36 H10        -2.4555   -6.9688    0.8657 H         1 <0>         0.0876
     37 H11        -4.1593   -5.8162   -2.1403 H         1 <0>         0.1379
     38 H12        -6.4075   -4.7560   -2.1020 H         1 <0>         0.1382
     39 H13        -7.3674   -4.0813    0.0902 H         1 <0>         0.1385
     40 H14        -6.0715   -4.4808    2.1455 H         1 <0>         0.1594
@<TRIPOS>BOND
     1    1    6 ar
     2    1    2 ar
     3    1   27 1
     4    2    3 ar
     5    2   28 1
     6    3    4 ar
     7    3   29 1
     8    4   26 1
     9    4    5 ar
    10    5    6 ar
    11    5    7 1
    12    6   30 1
    13    7    8 1
    14    7   31 1
    15    8    9 2
    16    8   26 1
    17    9   10 1
    18    9   12 1
    19   10   11 3
    20   12   17 ar
    21   12   13 ar
    22   13   14 ar
    23   13   32 1
    24   14   15 ar
    25   14   33 1
    26   15   16 ar
    27   16   17 ar
    28   16   18 1
    29   18   19 1
    30   18   34 1
    31   19   20 1
    32   19   35 1
    33   19   36 1
    34   20   25 ar
    35   20   21 ar
    36   21   22 ar
    37   21   37 1
    38   22   23 ar
    39   22   38 1
    40   23   24 ar
    41   23   39 1
    42   24   25 ar
    43   24   40 1
@<TRIPOS>MOLECULE
CHEMBL364940__1
   40    43     0     0     0
SMALL
USER_CHARGES

@<TRIPOS>ATOM
      1 C1         -0.0166    1.3699    0.0096 C.ar      1 <0>        -0.0802
      2 C2          1.1572    2.1045    0.0023 C.ar      1 <0>        -0.1192
      3 C3          2.3694    1.4373   -0.0129 C.ar      1 <0>        -0.0396
      4 C4          2.3887    0.0627   -0.0205 C.ar      1 <0>        -0.1883
      5 C5          1.2179   -0.7095   -0.0134 C.ar      1 <0>         0.1194
      6 C6          0.0021   -0.0041    0.0020 C.ar      1 <0>        -0.1208
      7 N1          1.3955   -2.0811   -0.0225 N.pl3     1 <0>        -0.6290
      8 C7          2.6545   -2.6113   -0.0374 C.2       1 <0>         0.2411
      9 C8          3.0385   -3.9533   -0.0487 C.2       1 <0>        -0.1368
     10 C9          2.0433   -4.9829   -0.0452 C.1       1 <0>         0.2727
     11 N2          1.2537   -5.7996   -0.0424 N.1       1 <0>        -0.4255
     12 C10         4.4680   -4.3104   -0.0642 C.ar      1 <0>         0.3092
     13 C11         4.8666   -5.6555   -0.0815 C.ar      1 <0>        -0.2851
     14 C12         6.2058   -5.9409   -0.0954 C.ar      1 <0>         0.2017
     15 N3          7.0848   -4.9482   -0.0923 N.ar      1 <0>        -0.5798
     16 C13         6.6886   -3.6836   -0.0759 C.ar      1 <0>         0.5855
     17 N4          5.4049   -3.3593   -0.0676 N.ar      1 <0>        -0.5823
     18 N5          7.6395   -2.6778   -0.0728 N.pl3     1 <0>        -0.6922
     19 C14         9.0646   -3.0170   -0.0875 C.3       1 <0>         0.1937
     20 C15         9.8823   -1.7512   -0.0806 C.ar      1 <0>         0.1032
     21 C16        10.3551   -1.2498    1.1176 C.ar      1 <0>        -0.1509
     22 C17        11.1064   -0.0848    1.1130 C.ar      1 <0>        -0.0762
     23 C18        11.3552    0.5353   -0.1022 C.ar      1 <0>        -0.1645
     24 C19        10.8496   -0.0247   -1.2599 C.ar      1 <0>         0.0998
     25 N6         10.1431   -1.1376   -1.2182 N.ar      1 <0>        -0.4678
     26 S1          3.6842   -1.1528   -0.0394 S.3       1 <0>         0.1843
     27 H1         -0.9648    1.8866    0.0260 H         1 <0>         0.1373
     28 H2          1.1270    3.1841    0.0081 H         1 <0>         0.1410
     29 H3          3.2952    1.9934   -0.0191 H         1 <0>         0.1395
     30 H4         -0.9301   -0.5494    0.0080 H         1 <0>         0.1308
     31 H5          0.6237   -2.6686   -0.0180 H         1 <0>         0.4163
     32 H6          4.1333   -6.4484   -0.0833 H         1 <0>         0.1381
     33 H7          6.5434   -6.9667   -0.1085 H         1 <0>         0.1674
     34 H8          7.3622   -1.7483   -0.0608 H         1 <0>         0.4133
     35 H9          9.3060   -3.6103    0.7944 H         1 <0>         0.0849
     36 H10         9.2920   -3.5916   -0.9854 H         1 <0>         0.0867
     37 H11        10.1416   -1.7592    2.0458 H         1 <0>         0.1380
     38 H12        11.4886    0.3303    2.0339 H         1 <0>         0.1377
     39 H13        11.9365    1.4446   -0.1432 H         1 <0>         0.1378
     40 H14        11.0389    0.4521   -2.2102 H         1 <0>         0.1590
@<TRIPOS>BOND
     1    1    6 ar
     2    1    2 ar
     3    1   27 1
     4    2    3 ar
     5    2   28 1
     6    3    4 ar
     7    3   29 1
     8    4   26 1
     9    4    5 ar
    10    5    6 ar
    11    5    7 1
    12    6   30 1
    13    7    8 1
    14    7   31 1
    15    8    9 2
    16    8   26 1
    17    9   10 1
    18    9   12 1
    19   10   11 3
    20   12   17 ar
    21   12   13 ar
    22   13   14 ar
    23   13   32 1
    24   14   15 ar
    25   14   33 1
    26   15   16 ar
    27   16   17 ar
    28   16   18 1
    29   18   19 1
    30   18   34 1
    31   19   20 1
    32   19   35 1
    33   19   36 1
    34   20   25 ar
    35   20   21 ar
    36   21   22 ar
    37   21   37 1
    38   22   23 ar
    39   22   38 1
    40   23   24 ar
    41   23   39 1
    42   24   25 ar
    43   24   40 1
@<TRIPOS>MOLECULE
CHEMBL205672
   44    47     0     0     0
SMALL
USER_CHARGES

@<TRIPOS>ATOM
      1 C1         -2.4661    1.2135   -0.5404 C.ar      1 <0>        -0.1266
      2 C2         -3.6644    1.8680   -0.7482 C.ar      1 <0>        -0.1307
      3 C3         -4.7234    1.2032   -1.3433 C.ar      1 <0>         0.0753
      4 C4         -4.5835   -0.1185   -1.7318 C.ar      1 <0>        -0.1317
      5 C5         -3.3868   -0.7767   -1.5264 C.ar      1 <0>        -0.0901
      6 C6         -2.3235   -0.1121   -0.9293 C.ar      1 <0>         0.1561
      7 N1         -1.1105   -0.7768   -0.7203 N.pl3     1 <0>        -0.6614
      8 C7         -1.1034   -2.1388   -0.4377 C.ar      1 <0>         0.3923
      9 C8          0.1067   -2.8166   -0.3505 C.ar      1 <0>        -0.2059
     10 C9          0.0968   -4.1814   -0.0666 C.ar      1 <0>         0.0316
     11 C10        -1.1392   -4.8110    0.1190 C.ar      1 <0>        -0.2051
     12 C11        -2.2950   -4.0670    0.0156 C.ar      1 <0>         0.1492
     13 N2         -2.2497   -2.7747   -0.2493 N.ar      1 <0>        -0.5241
     14 C12         1.3643   -4.9470    0.0358 C.ar      1 <0>         0.0316
     15 C13         2.6005   -4.3163   -0.1445 C.ar      1 <0>        -0.2054
     16 C14         3.7563   -5.0604   -0.0413 C.ar      1 <0>         0.1496
     17 N3          3.7110   -6.3525    0.2238 N.ar      1 <0>        -0.5244
     18 C15         2.5643   -6.9907    0.4019 C.ar      1 <0>         0.3928
     19 C16         1.3544   -6.3118    0.3197 C.ar      1 <0>        -0.2062
     20 N4          2.5711   -8.3538    0.6788 N.pl3     1 <0>        -0.6618
     21 C17         3.7846   -9.0218    0.8741 C.ar      1 <0>         0.1556
     22 C18         4.8476   -8.3687    1.4844 C.ar      1 <0>        -0.0890
     23 C19         6.0448   -9.0302    1.6762 C.ar      1 <0>        -0.1320
     24 C20         6.1859  -10.3433    1.2600 C.ar      1 <0>         0.0759
     25 C21         5.1275  -10.9963    0.6509 C.ar      1 <0>        -0.1310
     26 C22         3.9264  -10.3408    0.4631 C.ar      1 <0>        -0.1259
     27 F1          7.3580  -10.9883    1.4482 F         1 <0>        -0.1412
     28 F2         -5.8951    1.8450   -1.5447 F         1 <0>        -0.1413
     29 H1         -1.6391    1.7336   -0.0800 H         1 <0>         0.1333
     30 H2         -3.7758    2.8988   -0.4459 H         1 <0>         0.1379
     31 H3         -5.4109   -0.6351   -2.1954 H         1 <0>         0.1370
     32 H4         -3.2782   -1.8077   -1.8293 H         1 <0>         0.1438
     33 H5         -0.2743   -0.2880   -0.7725 H         1 <0>         0.4201
     34 H6          1.0400   -2.2943   -0.5008 H         1 <0>         0.1390
     35 H7         -1.1869   -5.8671    0.3401 H         1 <0>         0.1377
     36 H8         -3.2516   -4.5477    0.1575 H         1 <0>         0.1634
     37 H9          2.6484   -3.2595   -0.3621 H         1 <0>         0.1377
     38 H10         4.7131   -4.5789   -0.1798 H         1 <0>         0.1633
     39 H11         0.4211   -6.8342    0.4696 H         1 <0>         0.1390
     40 H12         1.7345   -8.8412    0.7365 H         1 <0>         0.4201
     41 H13         4.7383   -7.3443    1.8085 H         1 <0>         0.1433
     42 H14         6.8716   -8.5227    2.1507 H         1 <0>         0.1370
     43 H15         5.2399  -12.0203    0.3268 H         1 <0>         0.1379
     44 H16         3.0997  -10.8520   -0.0077 H         1 <0>         0.1333
@<TRIPOS>BOND
     1    1    6 ar
     2    1    2 ar
     3    1   29 1
     4    2    3 ar
     5    2   30 1
     6    3    4 ar
     7    3   28 1
     8    4    5 ar
     9    4   31 1
    10    5    6 ar
    11    5   32 1
    12    6    7 1
    13    7    8 1
    14    7   33 1
    15    8   13 ar
    16    8    9 ar
    17    9   10 ar
    18    9   34 1
    19   10   11 ar
    20   10   14 1
    21   11   12 ar
    22   11   35 1
    23   12   13 ar
    24   12   36 1
    25   14   19 ar
    26   14   15 ar
    27   15   16 ar
    28   15   37 1
    29   16   17 ar
    30   16   38 1
    31   17   18 ar
    32   18   19 ar
    33   18   20 1
    34   19   39 1
    35   20   21 1
    36   20   40 1
    37   21   26 ar
    38   21   22 ar
    39   22   23 ar
    40   22   41 1
    41   23   24 ar
    42   23   42 1
    43   24   25 ar
    44   24   27 1
    45   25   26 ar
    46   25   43 1
    47   26   44 1
@<TRIPOS>MOLECULE
CHEMBL550939
   39    41     0     0     0
SMALL
USER_CHARGES

@<TRIPOS>ATOM
      1 C1         -0.0173    1.4248    0.0099 C.3       1 <0>         0.0256
      2 O1          0.0021   -0.0041    0.0020 O.3       1 <0>        -0.3113
      3 C2         -1.2002   -0.6374    0.0101 C.ar      1 <0>         0.1660
      4 C3         -1.2547   -2.0241    0.0089 C.ar      1 <0>        -0.1694
      5 C4         -2.4769   -2.6687    0.0166 C.ar      1 <0>        -0.0441
      6 C5         -3.6475   -1.9348    0.0255 C.ar      1 <0>        -0.1643
      7 C6         -3.5984   -0.5479    0.0272 C.ar      1 <0>         0.1672
      8 C7         -2.3734    0.1011    0.0253 C.ar      1 <0>        -0.2890
      9 O2         -4.7501    0.1734    0.0360 O.3       1 <0>        -0.3107
     10 C8         -4.6242    1.5968    0.0372 C.3       1 <0>         0.0256
     11 C9         -2.5331   -4.1746    0.0148 C.3       1 <0>         0.1549
     12 N1         -2.5415   -4.6647    1.3954 N.am      1 <0>        -0.5401
     13 C10        -1.3953   -4.9647    2.1278 C.ar      1 <0>         0.1685
     14 C11        -0.0467   -4.8948    1.7968 C.ar      1 <0>        -0.1098
     15 C12         0.9141   -5.2571    2.7195 C.ar      1 <0>        -0.0922
     16 C13         0.5491   -5.6939    3.9835 C.ar      1 <0>         0.0753
     17 C14        -0.7877   -5.7691    4.3296 C.ar      1 <0>        -0.0675
     18 C15        -1.7605   -5.4057    3.4054 C.ar      1 <0>        -0.0821
     19 C16        -3.2420   -5.3715    3.4541 C.2       1 <0>         0.1179
     20 N2         -4.0113   -5.6993    4.4524 N.2       1 <0>        -0.2320
     21 O3         -5.4182   -5.6043    4.3229 O.3       1 <0>        -0.3621
     22 C17        -3.6559   -4.8758    2.1163 C.2       1 <0>         0.5417
     23 O4         -4.7977   -4.6958    1.7403 O.2       1 <0>        -0.4559
     24 F1          1.4992   -6.0464    4.8770 F         1 <0>        -0.1310
     25 H1          1.0053    1.8021    0.0021 H         1 <0>         0.1045
     26 H2         -0.5445    1.7859   -0.8732 H         1 <0>         0.0562
     27 H3         -0.5275    1.7763    0.9067 H         1 <0>         0.0557
     28 H4         -0.3410   -2.5999    0.0016 H         1 <0>         0.1343
     29 H5         -4.6016   -2.4409    0.0308 H         1 <0>         0.1375
     30 H6         -2.3330    1.1804    0.0307 H         1 <0>         0.1366
     31 H7         -4.0863    1.9147   -0.8559 H         1 <0>         0.0565
     32 H8         -5.6158    2.0493    0.0446 H         1 <0>         0.1044
     33 H9         -4.0744    1.9121    0.9240 H         1 <0>         0.0556
     34 H10        -3.4396   -4.5038   -0.4931 H         1 <0>         0.1101
     35 H11        -1.6610   -4.5702   -0.5058 H         1 <0>         0.1079
     36 H12         0.2500   -4.5564    0.8151 H         1 <0>         0.1454
     37 H13         1.9594   -5.2002    2.4541 H         1 <0>         0.1514
     38 H14        -1.0747   -6.1090    5.3138 H         1 <0>         0.1499
     39 H15        -5.9049   -5.8689    5.1155 H         1 <0>         0.4131
@<TRIPOS>BOND
     1    1    2 1
     2    1   25 1
     3    1   26 1
     4    1   27 1
     5    2    3 1
     6    3    8 ar
     7    3    4 ar
     8    4    5 ar
     9    4   28 1
    10    5    6 ar
    11    5   11 1
    12    6    7 ar
    13    6   29 1
    14    7    8 ar
    15    7    9 1
    16    8   30 1
    17    9   10 1
    18   10   31 1
    19   10   32 1
    20   10   33 1
    21   11   12 1
    22   11   34 1
    23   11   35 1
    24   12   22 am
    25   12   13 1
    26   13   18 ar
    27   13   14 ar
    28   14   15 ar
    29   14   36 1
    30   15   16 ar
    31   15   37 1
    32   16   17 ar
    33   16   24 1
    34   17   18 ar
    35   17   38 1
    36   18   19 1
    37   19   20 2
    38   19   22 1
    39   20   21 1
    40   21   39 1
    41   22   23 2
@<TRIPOS>MOLECULE
CHEMBL199136
   41    44     0     0     0
SMALL
USER_CHARGES

@<TRIPOS>ATOM
      1 C1          0.4085    0.5382    2.4237 C.ar      1 <0>        -0.0714
      2 C2          1.4707    1.4064    2.2487 C.ar      1 <0>        -0.1547
      3 C3          2.4562    1.1206    1.3218 C.ar      1 <0>        -0.0678
      4 C4          2.3824   -0.0346    0.5668 C.ar      1 <0>        -0.1007
      5 C5          1.3160   -0.9091    0.7405 C.ar      1 <0>         0.2107
      6 C6          0.3282   -0.6181    1.6727 C.ar      1 <0>        -0.1755
      7 N1          1.2375   -2.0783   -0.0214 N.pl3     1 <0>        -0.6806
      8 C7          0.0905   -2.8737    0.0359 C.ar      1 <0>         0.2094
      9 C8         -1.1696   -2.2594    0.0190 C.ar      1 <0>        -0.1700
     10 C9         -2.3150   -2.9848    0.0726 C.ar      1 <0>        -0.0205
     11 C10        -2.2480   -4.3886    0.1472 C.ar      1 <0>        -0.1964
     12 C11        -0.9301   -5.0389    0.1653 C.ar      1 <0>         0.1285
     13 C12         0.2235   -4.2294    0.1015 C.ar      1 <0>        -0.1449
     14 N2         -1.1434   -6.3416    0.2380 N.2       1 <0>        -0.2942
     15 N3         -2.5212   -6.5833    0.2686 N.pl3     1 <0>        -0.4164
     16 H1         -2.9321   -7.4603    0.3216 H         1 <0>         0.4451
     17 C13        -3.1928   -5.4143    0.2143 C.2       1 <0>         0.1571
     18 C14        -4.6596   -5.2498    0.2246 C.ar      1 <0>        -0.0494
     19 C15        -5.2497   -4.2733    1.0327 C.ar      1 <0>        -0.0590
     20 C16        -6.6212   -4.1190    1.0435 C.ar      1 <0>        -0.1201
     21 C17        -7.4198   -4.9266    0.2575 C.ar      1 <0>        -0.0716
     22 C18        -6.8440   -5.9062   -0.5546 C.ar      1 <0>        -0.1342
     23 C19        -5.4600   -6.0641   -0.5758 C.ar      1 <0>        -0.0413
     24 C20        -7.7012   -6.7698   -1.3948 C.2       1 <0>         0.5629
     25 O1         -7.1987   -7.6219   -2.1012 O.2       1 <0>        -0.5355
     26 N4         -9.0396   -6.6121   -1.3775 N.am      1 <0>        -0.8485
     27 Cl1         3.6196   -0.3927   -0.5972 Cl        1 <0>        -0.0695
     28 H2         -0.3571    0.7625    3.1517 H         1 <0>         0.1306
     29 H3          1.5304    2.3100    2.8372 H         1 <0>         0.1306
     30 H4          3.2841    1.8010    1.1875 H         1 <0>         0.1346
     31 H5         -0.5015   -1.2956    1.8105 H         1 <0>         0.1417
     32 H6          1.9794   -2.3373   -0.5901 H         1 <0>         0.4139
     33 H7         -1.2301   -1.1826   -0.0377 H         1 <0>         0.1328
     34 H8         -3.2735   -2.4874    0.0584 H         1 <0>         0.1295
     35 H9          1.2050   -4.6798    0.1088 H         1 <0>         0.1329
     36 H10        -4.6311   -3.6388    1.6500 H         1 <0>         0.1384
     37 H11        -7.0721   -3.3634    1.6697 H         1 <0>         0.1406
     38 H12        -8.4923   -4.8005    0.2712 H         1 <0>         0.1330
     39 H13        -5.0094   -6.8168   -1.2057 H         1 <0>         0.1395
     40 H14        -9.4405   -5.9321   -0.8138 H         1 <0>         0.4018
     41 H15        -9.6019   -7.1786   -1.9287 H         1 <0>         0.4087
@<TRIPOS>BOND
     1    1    6 ar
     2    1    2 ar
     3    1   28 1
     4    2    3 ar
     5    2   29 1
     6    3    4 ar
     7    3   30 1
     8    4    5 ar
     9    4   27 1
    10    5    6 ar
    11    5    7 1
    12    6   31 1
    13    7    8 1
    14    7   32 1
    15    8   13 ar
    16    8    9 ar
    17    9   10 ar
    18    9   33 1
    19   10   11 ar
    20   10   34 1
    21   11   17 2
    22   11   12 ar
    23   12   13 ar
    24   12   14 2
    25   13   35 1
    26   14   15 1
    27   15   16 1
    28   15   17 1
    29   17   18 1
    30   18   23 ar
    31   18   19 ar
    32   19   20 ar
    33   19   36 1
    34   20   21 ar
    35   20   37 1
    36   21   22 ar
    37   21   38 1
    38   22   23 ar
    39   22   24 1
    40   23   39 1
    41   24   25 2
    42   24   26 am
    43   26   40 1
    44   26   41 1
@<TRIPOS>MOLECULE
CHEMBL199136__1
   41    44     0     0     0
SMALL
USER_CHARGES

@<TRIPOS>ATOM
      1 C1          0.3982    0.5513    2.4052 C.ar      1 <0>        -0.0710
      2 C2          1.4613    1.4184    2.2303 C.ar      1 <0>        -0.1523
      3 C3          2.4510    1.1274    1.3095 C.ar      1 <0>        -0.0680
      4 C4          2.3803   -0.0318    0.5602 C.ar      1 <0>        -0.0991
      5 C5          1.3129   -0.9052    0.7338 C.ar      1 <0>         0.2075
      6 C6          0.3212   -0.6091    1.6602 C.ar      1 <0>        -0.1752
      7 N1          1.2375   -2.0783   -0.0224 N.pl3     1 <0>        -0.6796
      8 C7          0.0906   -2.8737    0.0350 C.ar      1 <0>         0.2187
      9 C8         -1.1702   -2.2742    0.0191 C.ar      1 <0>        -0.1805
     10 C9         -2.2999   -3.0359    0.0740 C.ar      1 <0>        -0.0164
     11 C10        -2.1990   -4.4281    0.1467 C.ar      1 <0>        -0.1810
     12 C11        -0.9322   -5.0404    0.1631 C.ar      1 <0>         0.1579
     13 C12         0.2120   -4.2498    0.1012 C.ar      1 <0>        -0.1788
     14 N2         -1.1437   -6.3937    0.2378 N.pl3     1 <0>        -0.5025
     15 N3         -2.5191   -6.6447    0.2686 N.2       1 <0>        -0.2319
     16 H1         -0.4489   -7.0699    0.2646 H         1 <0>         0.4438
     17 C13        -3.1817   -5.5149    0.2170 C.2       1 <0>         0.1418
     18 C14        -4.6563   -5.3631    0.2277 C.ar      1 <0>        -0.0242
     19 C15        -5.2416   -4.2690    0.8660 C.ar      1 <0>        -0.0671
     20 C16        -6.6151   -4.1257    0.8777 C.ar      1 <0>        -0.1235
     21 C17        -7.4182   -5.0628    0.2586 C.ar      1 <0>        -0.0752
     22 C18        -6.8449   -6.1618   -0.3840 C.ar      1 <0>        -0.1385
     23 C19        -5.4589   -6.3083   -0.4037 C.ar      1 <0>        -0.0279
     24 C20        -7.7057   -7.1652   -1.0463 C.2       1 <0>         0.5633
     25 O1         -7.2050   -8.1214   -1.6052 O.2       1 <0>        -0.5349
     26 N4         -9.0455   -7.0195   -1.0302 N.am      1 <0>        -0.8502
     27 Cl1         3.6224   -0.3962   -0.5966 Cl        1 <0>        -0.0690
     28 H2         -0.3706    0.7797    3.1285 H         1 <0>         0.1317
     29 H3          1.5185    2.3252    2.8141 H         1 <0>         0.1317
     30 H4          3.2798    1.8067    1.1755 H         1 <0>         0.1354
     31 H5         -0.5093   -1.2857    1.7979 H         1 <0>         0.1422
     32 H6          1.9815   -2.3401   -0.5870 H         1 <0>         0.4142
     33 H7         -1.2513   -1.1987   -0.0366 H         1 <0>         0.1371
     34 H8         -3.2713   -2.5640    0.0616 H         1 <0>         0.1345
     35 H9          1.1897   -4.7085    0.1090 H         1 <0>         0.1316
     36 H10        -4.6190   -3.5327    1.3524 H         1 <0>         0.1351
     37 H11        -7.0629   -3.2772    1.3735 H         1 <0>         0.1381
     38 H12        -8.4918   -4.9456    0.2718 H         1 <0>         0.1308
     39 H13        -5.0100   -7.1541   -0.9031 H         1 <0>         0.1427
     40 H14        -9.4450   -6.2565   -0.5841 H         1 <0>         0.4012
     41 H15        -9.6101   -7.6778   -1.4647 H         1 <0>         0.4073
@<TRIPOS>BOND
     1    1    6 ar
     2    1    2 ar
     3    1   28 1
     4    2    3 ar
     5    2   29 1
     6    3    4 ar
     7    3   30 1
     8    4    5 ar
     9    4   27 1
    10    5    6 ar
    11    5    7 1
    12    6   31 1
    13    7    8 1
    14    7   32 1
    15    8   13 ar
    16    8    9 ar
    17    9   10 ar
    18    9   33 1
    19   10   11 ar
    20   10   34 1
    21   11   17 1
    22   11   12 ar
    23   12   13 ar
    24   12   14 1
    25   13   35 1
    26   14   16 1
    27   14   15 1
    28   15   17 2
    29   17   18 1
    30   18   23 ar
    31   18   19 ar
    32   19   20 ar
    33   19   36 1
    34   20   21 ar
    35   20   37 1
    36   21   22 ar
    37   21   38 1
    38   22   23 ar
    39   22   24 1
    40   23   39 1
    41   24   25 2
    42   24   26 am
    43   26   40 1
    44   26   41 1
@<TRIPOS>MOLECULE
CHEMBL221229
   49    51     0     0     0
SMALL
USER_CHARGES

@<TRIPOS>ATOM
      1 C1         -0.0225    1.8097    0.0120 C.3       1 <0>        -0.6500
      2 S1          0.0021   -0.0041    0.0020 S.o2      1 <0>         2.4980
      3 O1          0.8352   -0.4880    1.0465 O.2       1 <0>        -0.9356
      4 O2         -1.3147   -0.5105   -0.1678 O.2       1 <0>        -0.9356
      5 C2          0.8454   -0.4373   -1.4831 C.ar      1 <0>        -0.6521
      6 C3          0.1346   -0.6126   -2.6557 C.ar      1 <0>        -0.0245
      7 C4          0.7962   -0.9525   -3.8208 C.ar      1 <0>        -0.1184
      8 C5          2.1688   -1.1167   -3.8136 C.ar      1 <0>        -0.0551
      9 C6          2.8797   -0.9405   -2.6412 C.ar      1 <0>        -0.1186
     10 C7          2.2186   -0.5964   -1.4770 C.ar      1 <0>        -0.0246
     11 C8          2.8899   -1.4882   -5.0836 C.3       1 <0>         0.1513
     12 N1          3.2853   -0.2700   -5.7949 N.am      1 <0>        -0.7057
     13 C9          3.9482   -0.3580   -6.9650 C.2       1 <0>         0.5734
     14 O3          4.2180   -1.4477   -7.4300 O.2       1 <0>        -0.5202
     15 C10         4.3483    0.8747   -7.6848 C.ar      1 <0>         0.1950
     16 C11         5.0260    0.7707   -8.8925 C.ar      1 <0>        -0.2420
     17 C12         5.4005    1.9327   -9.5673 C.ar      1 <0>         0.3373
     18 C13         5.0725    3.1730   -8.9900 C.ar      1 <0>        -0.2187
     19 C14         4.3845    3.1901   -7.7633 C.ar      1 <0>         0.4900
     20 N2          4.0476    2.0611   -7.1662 N.ar      1 <0>        -0.5576
     21 N3          4.0533    4.4008   -7.1791 N.pl3     1 <0>        -0.6994
     22 C15         3.3367    4.4260   -5.9016 C.3       1 <0>         0.1325
     23 C16         1.8660    4.8568   -6.0286 C.3       1 <0>        -0.1540
     24 C17         2.0696    5.6554   -4.7303 C.3       1 <0>        -0.1395
     25 C18         3.5626    5.7149   -5.0939 C.3       1 <0>        -0.1514
     26 C19         5.4334    4.3969   -9.6399 C.1       1 <0>         0.2585
     27 N4          5.7196    5.3679  -10.1554 N.1       1 <0>        -0.4215
     28 N5          6.0784    1.8670  -10.7747 N.pl3     1 <0>        -0.8416
     29 H1          1.0001    2.1870    0.0043 H         1 <0>         0.1320
     30 H2         -0.5497    2.1708   -0.8711 H         1 <0>         0.1320
     31 H3         -0.5327    2.1613    0.9088 H         1 <0>         0.1341
     32 H4         -0.9378   -0.4844   -2.6614 H         1 <0>         0.1450
     33 H5          0.2407   -1.0902   -4.7367 H         1 <0>         0.1367
     34 H6          3.9520   -1.0690   -2.6355 H         1 <0>         0.1367
     35 H7          2.7745   -0.4551   -0.5619 H         1 <0>         0.1451
     36 H8          3.7781   -2.0711   -4.8398 H         1 <0>         0.0868
     37 H9          2.2292   -2.0804   -5.7167 H         1 <0>         0.0868
     38 H10         3.0699    0.5999   -5.4237 H         1 <0>         0.4140
     39 H11         5.2609   -0.1995   -9.3047 H         1 <0>         0.1545
     40 H12         4.2957    5.2324   -7.6157 H         1 <0>         0.4095
     41 H13         3.4776    3.5154   -5.3192 H         1 <0>         0.1219
     42 H14         1.6677    5.4820   -6.8992 H         1 <0>         0.0824
     43 H15         1.1594    4.0329   -5.9282 H         1 <0>         0.0739
     44 H16         1.5798    6.6291   -4.7352 H         1 <0>         0.0739
     45 H17         1.8627    5.0809   -3.8273 H         1 <0>         0.0849
     46 H18         4.2258    5.5838   -4.2388 H         1 <0>         0.0763
     47 H19         3.8283    6.5747   -5.7089 H         1 <0>         0.0838
     48 H20         6.2984    1.0049  -11.1611 H         1 <0>         0.4137
     49 H21         6.3327    2.6831  -11.2332 H         1 <0>         0.4061
@<TRIPOS>BOND
     1    1    2 1
     2    1   29 1
     3    1   30 1
     4    1   31 1
     5    2    3 2
     6    2    4 2
     7    2    5 1
     8    5   10 ar
     9    5    6 ar
    10    6    7 ar
    11    6   32 1
    12    7    8 ar
    13    7   33 1
    14    8    9 ar
    15    8   11 1
    16    9   10 ar
    17    9   34 1
    18   10   35 1
    19   11   12 1
    20   11   36 1
    21   11   37 1
    22   12   13 am
    23   12   38 1
    24   13   14 2
    25   13   15 1
    26   15   20 ar
    27   15   16 ar
    28   16   17 ar
    29   16   39 1
    30   17   18 ar
    31   17   28 1
    32   18   19 ar
    33   18   26 1
    34   19   20 ar
    35   19   21 1
    36   21   22 1
    37   21   40 1
    38   22   25 1
    39   22   23 1
    40   22   41 1
    41   23   24 1
    42   23   42 1
    43   23   43 1
    44   24   25 1
    45   24   44 1
    46   24   45 1
    47   25   46 1
    48   25   47 1
    49   26   27 3
    50   28   48 1
    51   28   49 1
@<TRIPOS>MOLECULE
CHEMBL215943
   67    71     0     0     0
SMALL
USER_CHARGES

@<TRIPOS>ATOM
      1 C1         -0.0483    1.5024    0.0098 C.3       1 <0>        -0.1268
      2 C2         -0.0195   -0.0043    0.0016 C.ar      1 <0>        -0.0386
      3 C3         -0.0178   -0.6868   -1.1996 C.ar      1 <0>        -0.1235
      4 C4          0.0085   -2.0667   -1.2158 C.ar      1 <0>        -0.0785
      5 C5          0.0330   -2.7811   -0.0158 C.ar      1 <0>        -0.1428
      6 C6          0.0314   -2.0969    1.1984 C.ar      1 <0>        -0.0380
      7 C7          0.0111   -0.7058    1.2063 C.ar      1 <0>        -0.0517
      8 C8          0.0158    0.0300    2.4946 C.ar      1 <0>        -0.0766
      9 C9          0.9293    1.0770    2.6951 C.ar      1 <0>        -0.0509
     10 C10         0.9551    1.7681    3.8654 C.ar      1 <0>        -0.1204
     11 C11         0.0589    1.4368    4.8939 C.ar      1 <0>         0.2183
     12 C12        -0.8687    0.3799    4.7012 C.ar      1 <0>        -0.2144
     13 C13        -0.8839   -0.3174    3.4865 C.ar      1 <0>        -0.0354
     14 C14        -1.7564    0.0690    5.7490 C.ar      1 <0>         0.2451
     15 N1         -1.6869    0.7718    6.8601 N.ar      1 <0>        -0.5576
     16 C15        -0.8035    1.7573    7.0067 C.ar      1 <0>         0.5740
     17 N2          0.0519    2.0930    6.0606 N.ar      1 <0>        -0.5737
     18 N3         -0.7822    2.4573    8.1995 N.pl3     1 <0>        -0.6964
     19 C16        -1.7195    2.1088    9.2701 C.3       1 <0>         0.1398
     20 C17        -1.4872    3.0285   10.4706 C.3       1 <0>         0.0428
     21 N4         -2.4271    2.6791   11.5442 N.3       1 <0>        -0.5321
     22 C18        -3.8120    2.9741   11.1487 C.3       1 <0>         0.0117
     23 C19        -4.7604    2.5406   12.2697 C.3       1 <0>         0.0630
     24 O1         -4.3910    3.2025   13.4824 O.3       1 <0>        -0.3850
     25 C20        -3.0483    2.9369   13.8974 C.3       1 <0>         0.0630
     26 C21        -2.0826    3.3743   12.7929 C.3       1 <0>         0.0183
     27 C22         0.0602   -4.2590   -0.0337 C.2       1 <0>         0.5622
     28 O2          0.0816   -4.8792    1.0117 O.2       1 <0>        -0.5109
     29 N5          0.0613   -4.9189   -1.2088 N.am      1 <0>        -0.6699
     30 C23         0.1847   -6.3117   -1.2285 C.ar      1 <0>         0.1443
     31 C24         0.8894   -6.9337   -2.2514 C.ar      1 <0>        -0.1118
     32 C25         1.0099   -8.3092   -2.2677 C.ar      1 <0>        -0.0994
     33 C26         0.4298   -9.0675   -1.2671 C.ar      1 <0>        -0.0865
     34 C27        -0.2722   -8.4516   -0.2475 C.ar      1 <0>        -0.1641
     35 C28        -0.3920   -7.0758   -0.2225 C.ar      1 <0>        -0.0722
     36 C29        -0.9025   -9.2820    0.8407 C.3       1 <0>         0.5092
     37 F1         -0.6426  -10.6360    0.6040 F         1 <0>        -0.1761
     38 F2         -0.3653   -8.9135    2.0788 F         1 <0>        -0.1725
     39 F3         -2.2849   -9.0671    0.8497 F         1 <0>        -0.1757
     40 H1          0.9721    1.8854   -0.0029 H         1 <0>         0.0793
     41 H2         -0.5817    1.8604   -0.8708 H         1 <0>         0.0726
     42 H3         -0.5562    1.8513    0.9089 H         1 <0>         0.0756
     43 H4         -0.0375   -0.1384   -2.1297 H         1 <0>         0.1346
     44 H5          0.0097   -2.5949   -2.1579 H         1 <0>         0.1271
     45 H6          0.0504   -2.6442    2.1292 H         1 <0>         0.1408
     46 H7          1.6219    1.3369    1.9082 H         1 <0>         0.1341
     47 H8          1.6644    2.5707    4.0039 H         1 <0>         0.1396
     48 H9         -1.5883   -1.1204    3.3272 H         1 <0>         0.1367
     49 H10        -2.4780   -0.7275    5.6434 H         1 <0>         0.1790
     50 H11        -0.1467    3.1789    8.3270 H         1 <0>         0.4144
     51 H12        -2.7417    2.2301    8.9119 H         1 <0>         0.0688
     52 H13        -1.5600    1.0730    9.5698 H         1 <0>         0.0789
     53 H14        -0.4650    2.9072   10.8288 H         1 <0>         0.0845
     54 H15        -1.6467    4.0643   10.1709 H         1 <0>         0.0436
     55 H16        -3.9204    4.0444   10.9738 H         1 <0>         0.0453
     56 H17        -4.0538    2.4291   10.2363 H         1 <0>         0.0911
     57 H18        -5.7831    2.8094   12.0054 H         1 <0>         0.1000
     58 H19        -4.6911    1.4617   12.4082 H         1 <0>         0.0622
     59 H20        -2.8329    3.4922   14.8102 H         1 <0>         0.1003
     60 H21        -2.9293    1.8694   14.0832 H         1 <0>         0.0619
     61 H22        -1.0621    3.1215   13.0806 H         1 <0>         0.0888
     62 H23        -2.1634    4.4511   12.6442 H         1 <0>         0.0455
     63 H24        -0.0236   -4.4277   -2.0409 H         1 <0>         0.4141
     64 H25         1.3423   -6.3421   -3.0333 H         1 <0>         0.1370
     65 H26         1.5573   -8.7933   -3.0629 H         1 <0>         0.1416
     66 H27         0.5252  -10.1432   -1.2823 H         1 <0>         0.1414
     67 H28        -0.9370   -6.5950    0.5764 H         1 <0>         0.1510
@<TRIPOS>BOND
     1    1    2 1
     2    1   40 1
     3    1   41 1
     4    1   42 1
     5    2    7 ar
     6    2    3 ar
     7    3    4 ar
     8    3   43 1
     9    4    5 ar
    10    4   44 1
    11    5    6 ar
    12    5   27 1
    13    6    7 ar
    14    6   45 1
    15    7    8 1
    16    8   13 ar
    17    8    9 ar
    18    9   10 ar
    19    9   46 1
    20   10   11 ar
    21   10   47 1
    22   11   17 ar
    23   11   12 ar
    24   12   13 ar
    25   12   14 ar
    26   13   48 1
    27   14   15 ar
    28   14   49 1
    29   15   16 ar
    30   16   17 ar
    31   16   18 1
    32   18   19 1
    33   18   50 1
    34   19   20 1
    35   19   51 1
    36   19   52 1
    37   20   21 1
    38   20   53 1
    39   20   54 1
    40   21   26 1
    41   21   22 1
    42   22   23 1
    43   22   55 1
    44   22   56 1
    45   23   24 1
    46   23   57 1
    47   23   58 1
    48   24   25 1
    49   25   26 1
    50   25   59 1
    51   25   60 1
    52   26   61 1
    53   26   62 1
    54   27   28 2
    55   27   29 am
    56   29   30 1
    57   29   63 1
    58   30   35 ar
    59   30   31 ar
    60   31   32 ar
    61   31   64 1
    62   32   33 ar
    63   32   65 1
    64   33   34 ar
    65   33   66 1
    66   34   35 ar
    67   34   36 1
    68   35   67 1
    69   36   37 1
    70   36   38 1
    71   36   39 1
@<TRIPOS>MOLECULE
CHEMBL215943__1
   68    72     0     0     0
SMALL
USER_CHARGES

@<TRIPOS>ATOM
      1 C1         -0.0483    1.5024    0.0098 C.3       1 <0>        -0.1276
      2 C2         -0.0195   -0.0043    0.0016 C.ar      1 <0>        -0.0366
      3 C3         -0.0178   -0.6868   -1.1996 C.ar      1 <0>        -0.1221
      4 C4          0.0085   -2.0667   -1.2158 C.ar      1 <0>        -0.0731
      5 C5          0.0330   -2.7811   -0.0158 C.ar      1 <0>        -0.1410
      6 C6          0.0314   -2.0969    1.1984 C.ar      1 <0>        -0.0362
      7 C7          0.0111   -0.7058    1.2063 C.ar      1 <0>        -0.0635
      8 C8          0.0158    0.0300    2.4946 C.ar      1 <0>        -0.0553
      9 C9          0.9293    1.0770    2.6951 C.ar      1 <0>        -0.0467
     10 C10         0.9551    1.7681    3.8654 C.ar      1 <0>        -0.1170
     11 C11         0.0589    1.4368    4.8939 C.ar      1 <0>         0.2111
     12 C12        -0.8687    0.3799    4.7012 C.ar      1 <0>        -0.2001
     13 C13        -0.8839   -0.3174    3.4865 C.ar      1 <0>        -0.0453
     14 C14        -1.7564    0.0690    5.7490 C.ar      1 <0>         0.2479
     15 N1         -1.6869    0.7718    6.8601 N.ar      1 <0>        -0.5684
     16 C15        -0.8035    1.7573    7.0067 C.ar      1 <0>         0.5623
     17 N2          0.0519    2.0930    6.0606 N.ar      1 <0>        -0.5576
     18 N3         -0.7822    2.4573    8.1995 N.pl3     1 <0>        -0.7040
     19 C16        -1.7195    2.1088    9.2701 C.3       1 <0>         0.1188
     20 C17        -1.4872    3.0285   10.4706 C.3       1 <0>        -0.0230
     21 N4         -2.4271    2.6791   11.5442 N.4       1 <0>        -0.3805
     22 C18        -3.8007    2.9572   11.1027 C.3       1 <0>        -0.0511
     23 C19        -4.7779    2.5921   12.2228 C.3       1 <0>         0.0367
     24 O1         -4.4442    3.3332   13.3998 O.3       1 <0>        -0.3561
     25 C20        -3.1064    3.1140   13.8559 C.3       1 <0>         0.0359
     26 C21        -2.1261    3.4800   12.7388 C.3       1 <0>        -0.0426
     27 C22         0.0602   -4.2590   -0.0337 C.2       1 <0>         0.5618
     28 O2          0.0816   -4.8792    1.0117 O.2       1 <0>        -0.5123
     29 N5          0.0613   -4.9189   -1.2088 N.am      1 <0>        -0.6683
     30 C23         0.1847   -6.3117   -1.2285 C.ar      1 <0>         0.1414
     31 C24         0.8894   -6.9337   -2.2514 C.ar      1 <0>        -0.1102
     32 C25         1.0099   -8.3092   -2.2677 C.ar      1 <0>        -0.0984
     33 C26         0.4298   -9.0675   -1.2671 C.ar      1 <0>        -0.0844
     34 C27        -0.2722   -8.4516   -0.2475 C.ar      1 <0>        -0.1647
     35 C28        -0.3920   -7.0758   -0.2225 C.ar      1 <0>        -0.0721
     36 C29        -0.9025   -9.2820    0.8407 C.3       1 <0>         0.5095
     37 F1         -0.6426  -10.6360    0.6040 F         1 <0>        -0.1749
     38 F2         -0.3653   -8.9135    2.0788 F         1 <0>        -0.1737
     39 F3         -2.2849   -9.0671    0.8497 F         1 <0>        -0.1759
     40 H1          0.9721    1.8854   -0.0029 H         1 <0>         0.0806
     41 H2         -0.5817    1.8604   -0.8708 H         1 <0>         0.0754
     42 H3         -0.5562    1.8513    0.9089 H         1 <0>         0.0730
     43 H4         -0.0375   -0.1384   -2.1297 H         1 <0>         0.1371
     44 H5          0.0097   -2.5949   -2.1579 H         1 <0>         0.1298
     45 H6          0.0504   -2.6442    2.1292 H         1 <0>         0.1405
     46 H7          1.6219    1.3369    1.9082 H         1 <0>         0.1398
     47 H8          1.6644    2.5707    4.0039 H         1 <0>         0.1435
     48 H9         -1.5883   -1.1204    3.3272 H         1 <0>         0.1410
     49 H10        -2.4780   -0.7275    5.6434 H         1 <0>         0.1829
     50 H11        -0.1467    3.1789    8.3270 H         1 <0>         0.4205
     51 H12        -2.7417    2.2301    8.9119 H         1 <0>         0.0871
     52 H13        -1.5600    1.0730    9.5698 H         1 <0>         0.0876
     53 H14        -0.4650    2.9072   10.8288 H         1 <0>         0.1408
     54 H15        -1.6467    4.0643   10.1709 H         1 <0>         0.1388
     55 H16        -3.8989    4.0165   10.8654 H         1 <0>         0.1412
     56 H17        -4.0250    2.3635   10.2165 H         1 <0>         0.1457
     57 H18        -5.7940    2.8378   11.9139 H         1 <0>         0.1434
     58 H19        -4.7086    1.5248   12.4329 H         1 <0>         0.0831
     59 H20        -2.9127    3.7373   14.7289 H         1 <0>         0.1435
     60 H21        -2.9799    2.0645   14.1218 H         1 <0>         0.0826
     61 H22        -1.1073    3.2744   13.0672 H         1 <0>         0.1445
     62 H23        -2.2249    4.5391   12.5009 H         1 <0>         0.1407
     63 H24        -0.0236   -4.4277   -2.0409 H         1 <0>         0.4145
     64 H25         1.3423   -6.3421   -3.0333 H         1 <0>         0.1377
     65 H26         1.5573   -8.7933   -3.0629 H         1 <0>         0.1430
     66 H27         0.5252  -10.1432   -1.2823 H         1 <0>         0.1425
     67 H28        -0.9370   -6.5950    0.5764 H         1 <0>         0.1500
     68 H29        -2.3364    1.6987   11.7648 H         1 <0>         0.4260
@<TRIPOS>BOND
     1    1    2 1
     2    1   40 1
     3    1   41 1
     4    1   42 1
     5    2    7 ar
     6    2    3 ar
     7    3    4 ar
     8    3   43 1
     9    4    5 ar
    10    4   44 1
    11    5    6 ar
    12    5   27 1
    13    6    7 ar
    14    6   45 1
    15    7    8 1
    16    8   13 ar
    17    8    9 ar
    18    9   10 ar
    19    9   46 1
    20   10   11 ar
    21   10   47 1
    22   11   17 ar
    23   11   12 ar
    24   12   13 ar
    25   12   14 ar
    26   13   48 1
    27   14   15 ar
    28   14   49 1
    29   15   16 ar
    30   16   17 ar
    31   16   18 1
    32   18   19 1
    33   18   50 1
    34   19   20 1
    35   19   51 1
    36   19   52 1
    37   20   21 1
    38   20   53 1
    39   20   54 1
    40   21   26 1
    41   21   22 1
    42   21   68 1
    43   22   23 1
    44   22   55 1
    45   22   56 1
    46   23   24 1
    47   23   57 1
    48   23   58 1
    49   24   25 1
    50   25   26 1
    51   25   59 1
    52   25   60 1
    53   26   61 1
    54   26   62 1
    55   27   28 2
    56   27   29 am
    57   29   30 1
    58   29   63 1
    59   30   35 ar
    60   30   31 ar
    61   31   32 ar
    62   31   64 1
    63   32   33 ar
    64   32   65 1
    65   33   34 ar
    66   33   66 1
    67   34   35 ar
    68   34   36 1
    69   35   67 1
    70   36   37 1
    71   36   38 1
    72   36   39 1
@<TRIPOS>MOLECULE
CHEMBL379254
   46    48     0     0     0
SMALL
USER_CHARGES

@<TRIPOS>ATOM
      1 C1         -0.7754   -5.5503   -3.1665 C.3       1 <0>         0.0330
      2 O1         -0.2136   -4.6161   -2.2425 O.3       1 <0>        -0.3951
      3 C2          0.3091   -5.2156   -1.0553 C.3       1 <0>         0.0746
      4 C3          0.8815   -4.1278   -0.1442 C.3       1 <0>        -0.1387
      5 C4          1.4327   -4.7599    1.1078 C.2       1 <0>         0.5092
      6 O2          1.3736   -5.9621    1.2567 O.2       1 <0>        -0.4684
      7 N1          1.9914   -3.9893    2.0620 N.am      1 <0>        -0.6624
      8 C5          2.4059   -4.5599    3.2648 C.ar      1 <0>         0.3644
      9 C6          2.8778   -3.7446    4.2851 C.ar      1 <0>        -0.1896
     10 C7          3.2887   -4.3304    5.4822 C.ar      1 <0>         0.0198
     11 C8          3.2062   -5.7219    5.6015 C.ar      1 <0>        -0.1877
     12 C9          2.7257   -6.4601    4.5406 C.ar      1 <0>         0.1379
     13 N2          2.3403   -5.8724    3.4237 N.ar      1 <0>        -0.4738
     14 C10         3.8005   -3.4992    6.6004 C.ar      1 <0>         0.0325
     15 C11         3.8779   -2.1069    6.4829 C.ar      1 <0>        -0.2079
     16 C12         4.3584   -1.3684    7.5431 C.ar      1 <0>         0.1493
     17 N3          4.7438   -1.9554    8.6607 N.ar      1 <0>        -0.5224
     18 C13         4.6882   -3.2694    8.8162 C.ar      1 <0>         0.3945
     19 C14         4.2112   -4.0849    7.7970 C.ar      1 <0>        -0.2089
     20 N4          5.1072   -3.8390   10.0142 N.pl3     1 <0>        -0.6627
     21 C15         5.4802   -3.0208   11.0842 C.ar      1 <0>         0.1631
     22 C16         4.8547   -1.7951   11.2742 C.ar      1 <0>        -0.1187
     23 C17         5.2253   -0.9893   12.3328 C.ar      1 <0>        -0.1003
     24 C18         6.2179   -1.4014   13.2030 C.ar      1 <0>        -0.1423
     25 C19         6.8426   -2.6210   13.0168 C.ar      1 <0>        -0.0988
     26 C20         6.4732   -3.4340   11.9633 C.ar      1 <0>        -0.1562
     27 H1         -1.5958   -6.0856   -2.6884 H         1 <0>         0.0436
     28 H2         -1.1498   -5.0169   -4.0402 H         1 <0>         0.0887
     29 H3         -0.0090   -6.2612   -3.4756 H         1 <0>         0.0437
     30 H4         -0.4888   -5.7438   -0.5334 H         1 <0>         0.0598
     31 H5          1.0979   -5.9194   -1.3207 H         1 <0>         0.0599
     32 H6          1.6794   -3.5995   -0.6661 H         1 <0>         0.1066
     33 H7          0.0927   -3.4239    0.1211 H         1 <0>         0.1070
     34 H8          2.1052   -3.0378    1.9120 H         1 <0>         0.4200
     35 H9          2.9262   -2.6738    4.1535 H         1 <0>         0.1417
     36 H10         3.5154   -6.2118    6.5130 H         1 <0>         0.1395
     37 H11         2.6597   -7.5346    4.6267 H         1 <0>         0.1642
     38 H12         3.5654   -1.6169    5.5726 H         1 <0>         0.1374
     39 H13         4.4207   -0.2936    7.4580 H         1 <0>         0.1629
     40 H14         4.1628   -5.1558    7.9286 H         1 <0>         0.1381
     41 H15         5.1405   -4.8039   10.1070 H         1 <0>         0.4183
     42 H16         4.0797   -1.4725   10.5947 H         1 <0>         0.1348
     43 H17         4.7397   -0.0361   12.4809 H         1 <0>         0.1231
     44 H18         6.5061   -0.7691   14.0299 H         1 <0>         0.1211
     45 H19         7.6174   -2.9398   13.6983 H         1 <0>         0.1239
     46 H20         6.9586   -4.3882   11.8208 H         1 <0>         0.1216
@<TRIPOS>BOND
     1    1    2 1
     2    1   27 1
     3    1   28 1
     4    1   29 1
     5    2    3 1
     6    3    4 1
     7    3   30 1
     8    3   31 1
     9    4    5 1
    10    4   32 1
    11    4   33 1
    12    5    6 2
    13    5    7 am
    14    7    8 1
    15    7   34 1
    16    8   13 ar
    17    8    9 ar
    18    9   10 ar
    19    9   35 1
    20   10   11 ar
    21   10   14 1
    22   11   12 ar
    23   11   36 1
    24   12   13 ar
    25   12   37 1
    26   14   19 ar
    27   14   15 ar
    28   15   16 ar
    29   15   38 1
    30   16   17 ar
    31   16   39 1
    32   17   18 ar
    33   18   19 ar
    34   18   20 1
    35   19   40 1
    36   20   21 1
    37   20   41 1
    38   21   26 ar
    39   21   22 ar
    40   22   23 ar
    41   22   42 1
    42   23   24 ar
    43   23   43 1
    44   24   25 ar
    45   24   44 1
    46   25   26 ar
    47   25   45 1
    48   26   46 1
@<TRIPOS>MOLECULE
CHEMBL363254
   45    48     0     0     0
SMALL
USER_CHARGES

@<TRIPOS>ATOM
      1 C1         -0.0178    1.4608    0.0101 C.3       1 <0>         0.0538
      2 N1          0.0021   -0.0041    0.0020 N.pl3     1 <0>        -0.4072
      3 C2          0.0081   -0.8102   -1.1042 C.2       1 <0>         0.0337
      4 C3          0.0282   -2.0813   -0.6599 C.2       1 <0>         0.0375
      5 N2          0.0342   -2.0521    0.6810 N.pl3     1 <0>        -0.4748
      6 C4          0.0238   -0.8111    1.0845 C.cat     1 <0>         0.2934
      7 C5          0.0415   -3.3196   -1.5188 C.3       1 <0>        -0.0766
      8 C6          1.4813   -3.6467   -1.9197 C.3       1 <0>         0.1447
      9 N3          1.4943   -4.8504   -2.7547 N.pl3     1 <0>        -0.7086
     10 C7          2.6931   -5.3427   -3.2407 C.ar      1 <0>         0.5792
     11 N4          3.8198   -4.7147   -2.9357 N.ar      1 <0>        -0.5838
     12 C8          4.9895   -5.1532   -3.3802 C.ar      1 <0>         0.2033
     13 C9          5.0318   -6.2816   -4.1728 C.ar      1 <0>        -0.2745
     14 C10         3.8249   -6.9272   -4.4806 C.ar      1 <0>         0.3182
     15 N5          2.6851   -6.4311   -3.9933 N.ar      1 <0>        -0.6051
     16 C11         3.8159   -8.1356   -5.3237 C.2       1 <0>        -0.1432
     17 C12         2.6084   -8.7689   -5.6228 C.2       1 <0>         0.2624
     18 N6          1.3432   -8.4248   -5.2392 N.pl3     1 <0>        -0.6074
     19 C13         0.2620   -9.1874   -5.6423 C.ar      1 <0>         0.1200
     20 C14        -1.0945   -8.9763   -5.3397 C.ar      1 <0>        -0.1199
     21 C15        -2.0641   -9.8261   -5.8149 C.ar      1 <0>        -0.0764
     22 C16        -1.7399  -10.9155   -6.6058 C.ar      1 <0>        -0.1153
     23 C17        -0.4127  -11.1484   -6.9206 C.ar      1 <0>        -0.0369
     24 C18         0.5579  -10.2987   -6.4451 C.ar      1 <0>        -0.1564
     25 S1          2.3254  -10.2293   -6.6100 S.3       1 <0>         0.0884
     26 C19         5.0458   -8.6604   -5.8361 C.1       1 <0>         0.2703
     27 N7          6.0214   -9.0767   -6.2426 N.1       1 <0>        -0.4072
     28 H1          1.0048    1.8381    0.0023 H         1 <0>         0.1130
     29 H2         -0.5450    1.8219   -0.8730 H         1 <0>         0.1187
     30 H3         -0.5280    1.8123    0.9069 H         1 <0>         0.1169
     31 H4         -0.0017   -0.4887   -2.1352 H         1 <0>         0.2243
     32 H5          0.0290   -0.4838    2.1137 H         1 <0>         0.2629
     33 H6         -0.3784   -4.1549   -0.9585 H         1 <0>         0.1030
     34 H7         -0.5548   -3.1467   -2.4147 H         1 <0>         0.1185
     35 H8          1.9012   -2.8113   -2.4800 H         1 <0>         0.0774
     36 H9          2.0776   -3.8195   -1.0238 H         1 <0>         0.0707
     37 H10         0.6627   -5.3024   -2.9669 H         1 <0>         0.4127
     38 H11         5.9002   -4.6320   -3.1246 H         1 <0>         0.1720
     39 H12         5.9717   -6.6588   -4.5478 H         1 <0>         0.1458
     40 H13         1.2026   -7.6433   -4.6821 H         1 <0>         0.4304
     41 H14        -1.3784   -8.1348   -4.7250 H         1 <0>         0.1309
     42 H15        -3.0987   -9.6409   -5.5665 H         1 <0>         0.1397
     43 H16        -2.5128  -11.5751   -6.9718 H         1 <0>         0.1451
     44 H17        -0.1408  -11.9929   -7.5365 H         1 <0>         0.1433
     45 H18         0.0480   -2.8306    1.2596 H         1 <0>         0.4637
@<TRIPOS>BOND
     1    1    2 1
     2    1   28 1
     3    1   29 1
     4    1   30 1
     5    2    6 1
     6    2    3 1
     7    3    4 2
     8    3   31 1
     9    4    5 1
    10    4    7 1
    11    5    6 2
    12    5   45 1
    13    6   32 1
    14    7    8 1
    15    7   33 1
    16    7   34 1
    17    8    9 1
    18    8   35 1
    19    8   36 1
    20    9   10 1
    21    9   37 1
    22   10   15 ar
    23   10   11 ar
    24   11   12 ar
    25   12   13 ar
    26   12   38 1
    27   13   14 ar
    28   13   39 1
    29   14   15 ar
    30   14   16 1
    31   16   17 2
    32   16   26 1
    33   17   25 1
    34   17   18 1
    35   18   19 1
    36   18   40 1
    37   19   24 ar
    38   19   20 ar
    39   20   21 ar
    40   20   41 1
    41   21   22 ar
    42   21   42 1
    43   22   23 ar
    44   22   43 1
    45   23   24 ar
    46   23   44 1
    47   24   25 1
    48   26   27 3
@<TRIPOS>MOLECULE
CHEMBL363254__1
   45    48     0     0     0
SMALL
USER_CHARGES

@<TRIPOS>ATOM
      1 C1         -0.0178    1.4608    0.0101 C.3       1 <0>         0.0541
      2 N1          0.0021   -0.0041    0.0020 N.pl3     1 <0>        -0.4074
      3 C2          0.0081   -0.8102   -1.1042 C.2       1 <0>         0.0328
      4 C3          0.0282   -2.0813   -0.6599 C.2       1 <0>         0.0390
      5 N2          0.0342   -2.0521    0.6810 N.pl3     1 <0>        -0.4747
      6 C4          0.0238   -0.8111    1.0845 C.cat     1 <0>         0.2922
      7 C5          0.0415   -3.3196   -1.5188 C.3       1 <0>        -0.0773
      8 C6          1.4813   -3.6467   -1.9197 C.3       1 <0>         0.1451
      9 N3          1.4943   -4.8504   -2.7547 N.pl3     1 <0>        -0.7069
     10 C7          2.6931   -5.3427   -3.2407 C.ar      1 <0>         0.5792
     11 N4          3.8198   -4.7147   -2.9357 N.ar      1 <0>        -0.5847
     12 C8          4.9895   -5.1532   -3.3802 C.ar      1 <0>         0.2000
     13 C9          5.0318   -6.2816   -4.1728 C.ar      1 <0>        -0.2757
     14 C10         3.8249   -6.9272   -4.4806 C.ar      1 <0>         0.3139
     15 N5          2.6851   -6.4311   -3.9933 N.ar      1 <0>        -0.5800
     16 C11         3.8159   -8.1356   -5.3237 C.2       1 <0>        -0.1429
     17 C12         2.6084   -8.7689   -5.6228 C.2       1 <0>         0.2477
     18 N6          2.3924   -9.8898   -6.3733 N.pl3     1 <0>        -0.6265
     19 C13         1.1076  -10.3681   -6.5563 C.ar      1 <0>         0.1171
     20 C14         0.7120  -11.4981   -7.2930 C.ar      1 <0>        -0.1175
     21 C15        -0.6126  -11.8514   -7.3861 C.ar      1 <0>        -0.0774
     22 C16        -1.6000  -11.1098   -6.7596 C.ar      1 <0>        -0.1157
     23 C17        -1.2404   -9.9923   -6.0269 C.ar      1 <0>        -0.0407
     24 C18         0.0847   -9.6380   -5.9337 C.ar      1 <0>        -0.1870
     25 S1          0.9556   -8.3237   -5.1151 S.3       1 <0>         0.1757
     26 C19         5.0458   -8.6604   -5.8361 C.1       1 <0>         0.2665
     27 N7          6.0214   -9.0767   -6.2426 N.1       1 <0>        -0.4173
     28 H1          1.0048    1.8381    0.0023 H         1 <0>         0.1126
     29 H2         -0.5450    1.8219   -0.8730 H         1 <0>         0.1185
     30 H3         -0.5280    1.8123    0.9069 H         1 <0>         0.1165
     31 H4         -0.0017   -0.4887   -2.1352 H         1 <0>         0.2243
     32 H5          0.0290   -0.4838    2.1137 H         1 <0>         0.2624
     33 H6         -0.3784   -4.1549   -0.9585 H         1 <0>         0.1036
     34 H7         -0.5548   -3.1467   -2.4147 H         1 <0>         0.1191
     35 H8          1.9012   -2.8113   -2.4800 H         1 <0>         0.0762
     36 H9          2.0776   -3.8195   -1.0238 H         1 <0>         0.0696
     37 H10         0.6627   -5.3024   -2.9669 H         1 <0>         0.4157
     38 H11         5.9002   -4.6320   -3.1246 H         1 <0>         0.1700
     39 H12         5.9717   -6.6588   -4.5478 H         1 <0>         0.1422
     40 H13         3.1426  -10.3516   -6.7794 H         1 <0>         0.4184
     41 H14         1.4593  -12.0964   -7.7929 H         1 <0>         0.1330
     42 H15        -0.8889  -12.7241   -7.9593 H         1 <0>         0.1399
     43 H16        -2.6371  -11.3995   -6.8420 H         1 <0>         0.1430
     44 H17        -1.9965   -9.4018   -5.5310 H         1 <0>         0.1396
     45 H18         0.0480   -2.8306    1.2596 H         1 <0>         0.4637
@<TRIPOS>BOND
     1    1    2 1
     2    1   28 1
     3    1   29 1
     4    1   30 1
     5    2    6 1
     6    2    3 1
     7    3    4 2
     8    3   31 1
     9    4    5 1
    10    4    7 1
    11    5    6 2
    12    5   45 1
    13    6   32 1
    14    7    8 1
    15    7   33 1
    16    7   34 1
    17    8    9 1
    18    8   35 1
    19    8   36 1
    20    9   10 1
    21    9   37 1
    22   10   15 ar
    23   10   11 ar
    24   11   12 ar
    25   12   13 ar
    26   12   38 1
    27   13   14 ar
    28   13   39 1
    29   14   15 ar
    30   14   16 1
    31   16   17 2
    32   16   26 1
    33   17   25 1
    34   17   18 1
    35   18   19 1
    36   18   40 1
    37   19   24 ar
    38   19   20 ar
    39   20   21 ar
    40   20   41 1
    41   21   22 ar
    42   21   42 1
    43   22   23 ar
    44   22   43 1
    45   23   24 ar
    46   23   44 1
    47   24   25 1
    48   26   27 3
@<TRIPOS>MOLECULE
CHEMBL205402
   47    50     0     0     0
SMALL
USER_CHARGES

@<TRIPOS>ATOM
      1 C1          1.2152    1.4781   -2.2419 C.3       1 <0>        -0.1088
      2 C2          1.0625   -0.0208   -2.2779 C.ar      1 <0>         0.1101
      3 C3          1.0847   -0.7469   -1.0955 C.ar      1 <0>         0.0528
      4 N1          0.9520   -2.0577   -1.1218 N.ar      1 <0>        -0.4105
      5 C4          0.7959   -2.6858   -2.2842 C.ar      1 <0>         0.0123
      6 C5          0.7736   -1.9532   -3.4703 C.ar      1 <0>         0.1240
      7 N2          0.9024   -0.6389   -3.4344 N.ar      1 <0>        -0.4399
      8 C6          0.6469   -4.1589   -2.3183 C.2       1 <0>         0.5729
      9 O1          0.5045   -4.7308   -3.3810 O.2       1 <0>        -0.4534
     10 N3          0.6693   -4.8652   -1.1706 N.am      1 <0>        -0.6448
     11 C7          0.4244   -6.2367   -1.1918 C.ar      1 <0>         0.3640
     12 C8          0.3391   -6.9378    0.0042 C.ar      1 <0>        -0.1860
     13 C9          0.0930   -8.3100   -0.0336 C.ar      1 <0>         0.0201
     14 C10        -0.0577   -8.9219   -1.2827 C.ar      1 <0>        -0.1860
     15 C11         0.0413   -8.1541   -2.4237 C.ar      1 <0>         0.1386
     16 N4          0.2701   -6.8565   -2.3514 N.ar      1 <0>        -0.4742
     17 C12        -0.0058   -9.1007    1.2186 C.ar      1 <0>         0.0325
     18 C13         0.1396   -8.4876    2.4682 C.ar      1 <0>        -0.2076
     19 C14         0.0409   -9.2548    3.6091 C.ar      1 <0>         0.1493
     20 N5         -0.1874  -10.5528    3.5373 N.ar      1 <0>        -0.5224
     21 C15        -0.3316  -11.1749    2.3771 C.ar      1 <0>         0.3942
     22 C16        -0.2518  -10.4724    1.1807 C.ar      1 <0>        -0.2085
     23 N6         -0.5709  -12.5451    2.3560 N.pl3     1 <0>        -0.6627
     24 C17        -0.7661  -13.2389    3.5534 C.ar      1 <0>         0.1634
     25 C18        -1.3855  -12.6128    4.6277 C.ar      1 <0>        -0.1188
     26 C19        -1.5773  -13.3014    5.8093 C.ar      1 <0>        -0.1003
     27 C20        -1.1536  -14.6128    5.9238 C.ar      1 <0>        -0.1424
     28 C21        -0.5367  -15.2391    4.8563 C.ar      1 <0>        -0.0988
     29 C22        -0.3464  -14.5580    3.6701 C.ar      1 <0>        -0.1562
     30 H1          0.2331    1.9412   -2.1467 H         1 <0>         0.0906
     31 H2          1.8340    1.7599   -1.3900 H         1 <0>         0.0864
     32 H3          1.6890    1.8172   -3.1632 H         1 <0>         0.0864
     33 H4          1.2113   -0.2369   -0.1520 H         1 <0>         0.1806
     34 H5          0.6472   -2.4588   -4.4162 H         1 <0>         0.1856
     35 H6          0.8558   -4.4188   -0.3299 H         1 <0>         0.4276
     36 H7          0.4618   -6.4284    0.9485 H         1 <0>         0.1426
     37 H8         -0.2488   -9.9826   -1.3524 H         1 <0>         0.1403
     38 H9         -0.0738   -8.6210   -3.3908 H         1 <0>         0.1656
     39 H10         0.3273   -7.4263    2.5377 H         1 <0>         0.1377
     40 H11         0.1523   -8.7870    4.5761 H         1 <0>         0.1629
     41 H12        -0.3741  -10.9819    0.2363 H         1 <0>         0.1383
     42 H13        -0.6021  -13.0190    1.5102 H         1 <0>         0.4183
     43 H14        -1.7163  -11.5886    4.5391 H         1 <0>         0.1348
     44 H15        -2.0585  -12.8152    6.6450 H         1 <0>         0.1230
     45 H16        -1.3045  -15.1490    6.8491 H         1 <0>         0.1210
     46 H17        -0.2066  -16.2633    4.9492 H         1 <0>         0.1238
     47 H18         0.1317  -15.0490    2.8354 H         1 <0>         0.1216
@<TRIPOS>BOND
     1    1    2 1
     2    1   30 1
     3    1   31 1
     4    1   32 1
     5    2    7 ar
     6    2    3 ar
     7    3    4 ar
     8    3   33 1
     9    4    5 ar
    10    5    6 ar
    11    5    8 1
    12    6    7 ar
    13    6   34 1
    14    8    9 2
    15    8   10 am
    16   10   11 1
    17   10   35 1
    18   11   16 ar
    19   11   12 ar
    20   12   13 ar
    21   12   36 1
    22   13   14 ar
    23   13   17 1
    24   14   15 ar
    25   14   37 1
    26   15   16 ar
    27   15   38 1
    28   17   22 ar
    29   17   18 ar
    30   18   19 ar
    31   18   39 1
    32   19   20 ar
    33   19   40 1
    34   20   21 ar
    35   21   22 ar
    36   21   23 1
    37   22   41 1
    38   23   24 1
    39   23   42 1
    40   24   29 ar
    41   24   25 ar
    42   25   26 ar
    43   25   43 1
    44   26   27 ar
    45   26   44 1
    46   27   28 ar
    47   27   45 1
    48   28   29 ar
    49   28   46 1
    50   29   47 1
@<TRIPOS>MOLECULE
CHEMBL584899
   61    66     0     0     0
SMALL
USER_CHARGES

@<TRIPOS>ATOM
      1 C1         -2.4537   -0.4014    1.1903 C.ar      1 <0>        -0.0775
      2 C2         -3.2193   -1.1588    2.0657 C.ar      1 <0>        -0.1590
      3 C3         -2.8069   -2.4364    2.3959 C.ar      1 <0>         0.1019
      4 N1         -1.6994   -2.9414    1.8915 N.ar      1 <0>        -0.4574
      5 C4         -0.9396   -2.2504    1.0516 C.ar      1 <0>         0.1983
      6 C5         -1.2955   -0.9568    0.6752 C.ar      1 <0>        -0.1245
      7 C6          0.2992   -2.8597    0.5092 C.2       1 <0>         0.2678
      8 N2          1.1531   -2.2695   -0.3383 N.2       1 <0>        -0.5207
      9 C7          2.1370   -3.0839   -0.6142 C.2       1 <0>         0.2636
     10 N3          1.9351   -4.2341    0.0600 N.pl3     1 <0>        -0.3250
     11 N4          0.7441   -4.0670    0.7852 N.2       1 <0>        -0.2641
     12 C8          2.7557   -5.3710    0.0445 C.ar      1 <0>         0.1260
     13 C9          3.9155   -5.3797   -0.7193 C.ar      1 <0>        -0.1077
     14 C10         4.7234   -6.4987   -0.7348 C.ar      1 <0>        -0.0898
     15 C11         4.3765   -7.6161    0.0142 C.ar      1 <0>         0.1694
     16 C12         3.2165   -7.6069    0.7785 C.ar      1 <0>        -0.1256
     17 C13         2.4115   -6.4860    0.7974 C.ar      1 <0>        -0.0838
     18 N5          5.1949   -8.7505   -0.0017 N.pl3     1 <0>        -0.6365
     19 C14         6.5679   -8.6123   -0.1222 C.ar      1 <0>         0.5640
     20 N6          7.0987   -7.3979   -0.1050 N.ar      1 <0>        -0.5562
     21 C15         8.4058   -7.2242   -0.2170 C.ar      1 <0>         0.1950
     22 C16         9.2264   -8.3302   -0.3538 C.ar      1 <0>        -0.2650
     23 C17         8.6384   -9.5974   -0.3686 C.ar      1 <0>         0.2614
     24 N7          7.3167   -9.6967   -0.2461 N.ar      1 <0>        -0.5548
     25 C18         9.4747  -10.8140   -0.5130 C.ar      1 <0>        -0.0119
     26 C19        10.8567  -10.6989   -0.6293 C.ar      1 <0>        -0.0990
     27 C20        11.6400  -11.8444   -0.7644 C.ar      1 <0>         0.0225
     28 C21        11.0355  -13.1027   -0.7825 C.ar      1 <0>        -0.1365
     29 C22         9.6577  -13.2123   -0.6668 C.ar      1 <0>         0.2167
     30 C23         8.8774  -12.0729   -0.5265 C.ar      1 <0>        -0.1213
     31 N8          9.0545  -14.4726   -0.6861 N.pl3     1 <0>        -0.6295
     32 C24         7.5896  -14.6111   -0.6980 C.3       1 <0>         0.0850
     33 C25         7.2031  -15.5631   -1.8356 C.3       1 <0>         0.0454
     34 O1          7.9543  -16.7732   -1.7123 O.3       1 <0>        -0.3776
     35 C26         9.3681  -16.5994   -1.8334 C.3       1 <0>         0.0450
     36 C27         9.8654  -15.7004   -0.7013 C.3       1 <0>         0.0833
     37 C28        13.0624  -11.7303   -0.8848 C.1       1 <0>         0.2513
     38 N9         14.1908  -11.6399   -0.9803 N.1       1 <0>        -0.4047
     39 H1         -2.7574    0.5975    0.9138 H         1 <0>         0.1429
     40 H2         -4.1284   -0.7540    2.4853 H         1 <0>         0.1410
     41 H3         -3.4004   -3.0285    3.0768 H         1 <0>         0.1633
     42 H4         -0.6762   -0.3956   -0.0088 H         1 <0>         0.1487
     43 H5          2.9687   -2.8723   -1.2698 H         1 <0>         0.2272
     44 H6          4.1852   -4.5110   -1.3015 H         1 <0>         0.1360
     45 H7          5.6250   -6.5056   -1.3293 H         1 <0>         0.1468
     46 H8          2.9464   -8.4757    1.3605 H         1 <0>         0.1376
     47 H9          1.5118   -6.4774    1.3948 H         1 <0>         0.1441
     48 H10         4.8009   -9.6338    0.0717 H         1 <0>         0.4259
     49 H11         8.8276   -6.2301   -0.2020 H         1 <0>         0.1756
     50 H12        10.2963   -8.2163   -0.4474 H         1 <0>         0.1519
     51 H13        11.3215   -9.7241   -0.6152 H         1 <0>         0.1387
     52 H14        11.6408  -13.9909   -0.8871 H         1 <0>         0.1371
     53 H15         7.8052  -12.1619   -0.4321 H         1 <0>         0.1449
     54 H16         7.2518  -15.0205    0.2541 H         1 <0>         0.0755
     55 H17         7.1300  -13.6365   -0.8628 H         1 <0>         0.0956
     56 H18         6.1382  -15.7879   -1.7763 H         1 <0>         0.1071
     57 H19         7.4240  -15.0935   -2.7942 H         1 <0>         0.0572
     58 H20         9.8607  -17.5698   -1.7725 H         1 <0>         0.1074
     59 H21         9.5969  -16.1337   -2.7920 H         1 <0>         0.0571
     60 H22        10.9123  -15.4469   -0.8684 H         1 <0>         0.0936
     61 H23         9.7607  -16.2214    0.2503 H         1 <0>         0.0763
@<TRIPOS>BOND
     1    1    6 ar
     2    1    2 ar
     3    1   39 1
     4    2    3 ar
     5    2   40 1
     6    3    4 ar
     7    3   41 1
     8    4    5 ar
     9    5    6 ar
    10    5    7 1
    11    6   42 1
    12    7   11 2
    13    7    8 1
    14    8    9 2
    15    9   10 1
    16    9   43 1
    17   10   11 1
    18   10   12 1
    19   12   17 ar
    20   12   13 ar
    21   13   14 ar
    22   13   44 1
    23   14   15 ar
    24   14   45 1
    25   15   16 ar
    26   15   18 1
    27   16   17 ar
    28   16   46 1
    29   17   47 1
    30   18   19 1
    31   18   48 1
    32   19   24 ar
    33   19   20 ar
    34   20   21 ar
    35   21   22 ar
    36   21   49 1
    37   22   23 ar
    38   22   50 1
    39   23   24 ar
    40   23   25 1
    41   25   30 ar
    42   25   26 ar
    43   26   27 ar
    44   26   51 1
    45   27   28 ar
    46   27   37 1
    47   28   29 ar
    48   28   52 1
    49   29   30 ar
    50   29   31 1
    51   30   53 1
    52   31   36 1
    53   31   32 1
    54   32   33 1
    55   32   54 1
    56   32   55 1
    57   33   34 1
    58   33   56 1
    59   33   57 1
    60   34   35 1
    61   35   36 1
    62   35   58 1
    63   35   59 1
    64   36   60 1
    65   36   61 1
    66   37   38 3
@<TRIPOS>MOLECULE
CHEMBL568116
   69    74     0     0     0
SMALL
USER_CHARGES

@<TRIPOS>ATOM
      1 C1          0.2790    1.2370   -0.2565 C.3       1 <0>        -0.0467
      2 N1          0.1396   -0.2248   -0.2146 N.4       1 <0>        -0.3852
      3 C2         -1.2791   -0.5754   -0.0710 C.3       1 <0>        -0.0221
      4 C3         -1.4377   -2.0978   -0.1423 C.3       1 <0>         0.1149
      5 N2         -0.5567   -2.7062    0.8666 N.pl3     1 <0>        -0.6012
      6 C4          0.8529   -2.2865    0.8996 C.3       1 <0>         0.1140
      7 C5          0.9033   -0.7552    0.9218 C.3       1 <0>        -0.0215
      8 C6         -1.0444   -3.6542    1.7671 C.2       1 <0>         0.4679
      9 N3         -2.3016   -4.1055    1.8165 N.2       1 <0>        -0.5636
     10 C7         -2.4185   -4.9869    2.7774 C.2       1 <0>         0.2935
     11 N4         -1.2187   -5.1204    3.3730 N.pl3     1 <0>        -0.3094
     12 N5         -0.3424   -4.2531    2.7005 N.2       1 <0>        -0.3511
     13 C8         -0.9045   -5.9631    4.4491 C.ar      1 <0>         0.1164
     14 C9          0.3568   -5.9096    5.0275 C.ar      1 <0>        -0.0834
     15 C10         0.6664   -6.7391    6.0863 C.ar      1 <0>        -0.0954
     16 C11        -0.2840   -7.6273    6.5736 C.ar      1 <0>         0.1795
     17 C12        -1.5458   -7.6803    5.9952 C.ar      1 <0>        -0.1237
     18 C13        -1.8566   -6.8469    4.9397 C.ar      1 <0>        -0.1038
     19 N6          0.0297   -8.4686    7.6467 N.pl3     1 <0>        -0.6378
     20 C14         0.8995   -8.0365    8.6343 C.ar      1 <0>         0.5606
     21 N7          1.3387   -6.7862    8.6061 N.ar      1 <0>        -0.5585
     22 C15         2.1704   -6.3354    9.5314 C.ar      1 <0>         0.1925
     23 C16         2.5849   -7.1860   10.5414 C.ar      1 <0>        -0.2596
     24 C17         2.1053   -8.4982   10.5450 C.ar      1 <0>         0.2645
     25 N8          1.2666   -8.8811    9.5850 N.ar      1 <0>        -0.5509
     26 C18         2.5198   -9.4484   11.6058 C.ar      1 <0>         0.0111
     27 C19         2.1253  -10.7827   11.5409 C.ar      1 <0>        -0.1595
     28 C20         2.5160  -11.6672   12.5352 C.ar      1 <0>         0.2438
     29 C21         3.2992  -11.2216   13.5930 C.ar      1 <0>        -0.2187
     30 C22         3.6909   -9.8959   13.6579 C.ar      1 <0>         0.1499
     31 C23         3.3097   -9.0096   12.6668 C.ar      1 <0>        -0.1839
     32 F1          4.4516   -9.4676   14.6889 F         1 <0>        -0.1319
     33 N9          2.1217  -13.0059   12.4734 N.pl3     1 <0>        -0.6266
     34 C24         1.4032  -13.5307   11.3014 C.3       1 <0>         0.0848
     35 C25         2.1135  -14.8046   10.8294 C.3       1 <0>         0.0456
     36 O1          2.2620  -15.6980   11.9355 O.3       1 <0>        -0.3768
     37 C26         3.0741  -15.1874   12.9954 C.3       1 <0>         0.0453
     38 C27         2.4181  -13.9344   13.5759 C.3       1 <0>         0.0822
     39 H1          1.3310    1.4984   -0.3711 H         1 <0>         0.1252
     40 H2         -0.2876    1.6320   -1.0997 H         1 <0>         0.1257
     41 H3         -0.1029    1.6651    0.6703 H         1 <0>         0.1214
     42 H4         -1.6467   -0.2164    0.8903 H         1 <0>         0.1324
     43 H5         -1.8511   -0.1124   -0.8750 H         1 <0>         0.1443
     44 H6         -2.4731   -2.3683    0.0647 H         1 <0>         0.1359
     45 H7         -1.1555   -2.4494   -1.1347 H         1 <0>         0.0908
     46 H8          1.3318   -2.6817    1.7955 H         1 <0>         0.1303
     47 H9          1.3663   -2.6571    0.0124 H         1 <0>         0.0922
     48 H10         1.9395   -0.4246    0.8493 H         1 <0>         0.1442
     49 H11         0.4697   -0.3907    1.8530 H         1 <0>         0.1326
     50 H12        -3.3213   -5.5154    3.0459 H         1 <0>         0.2280
     51 H13         1.0957   -5.2190    4.6486 H         1 <0>         0.1380
     52 H14         1.6477   -6.6980    6.5357 H         1 <0>         0.1471
     53 H15        -2.2848   -8.3710    6.3736 H         1 <0>         0.1416
     54 H16        -2.8391   -6.8850    4.4928 H         1 <0>         0.1372
     55 H17        -0.3618   -9.3546    7.6989 H         1 <0>         0.4273
     56 H18         2.5223   -5.3149    9.4986 H         1 <0>         0.1756
     57 H19         3.2635   -6.8435   11.3086 H         1 <0>         0.1535
     58 H20         1.5163  -11.1276   10.7184 H         1 <0>         0.1427
     59 H21         3.6027  -11.9115   14.3666 H         1 <0>         0.1405
     60 H22         3.6204   -7.9765   12.7175 H         1 <0>         0.1403
     61 H23         0.3745  -13.7641   11.5756 H         1 <0>         0.0759
     62 H24         1.4115  -12.7885   10.5031 H         1 <0>         0.0947
     63 H25         1.5208  -15.2846   10.0506 H         1 <0>         0.1075
     64 H26         3.0963  -14.5482   10.4339 H         1 <0>         0.0567
     65 H27         3.1726  -15.9428   13.7750 H         1 <0>         0.1091
     66 H28         4.0605  -14.9324   12.6078 H         1 <0>         0.0570
     67 H29         3.0980  -13.4595   14.2831 H         1 <0>         0.0947
     68 H30         1.4932  -14.2092   14.0831 H         1 <0>         0.0770
     69 H31         0.4961   -0.6201   -1.0718 H         1 <0>         0.4254
@<TRIPOS>BOND
     1    1    2 1
     2    1   39 1
     3    1   40 1
     4    1   41 1
     5    2    7 1
     6    2    3 1
     7    2   69 1
     8    3    4 1
     9    3   42 1
    10    3   43 1
    11    4    5 1
    12    4   44 1
    13    4   45 1
    14    5    6 1
    15    5    8 1
    16    6    7 1
    17    6   46 1
    18    6   47 1
    19    7   48 1
    20    7   49 1
    21    8   12 2
    22    8    9 1
    23    9   10 2
    24   10   11 1
    25   10   50 1
    26   11   12 1
    27   11   13 1
    28   13   18 ar
    29   13   14 ar
    30   14   15 ar
    31   14   51 1
    32   15   16 ar
    33   15   52 1
    34   16   17 ar
    35   16   19 1
    36   17   18 ar
    37   17   53 1
    38   18   54 1
    39   19   20 1
    40   19   55 1
    41   20   25 ar
    42   20   21 ar
    43   21   22 ar
    44   22   23 ar
    45   22   56 1
    46   23   24 ar
    47   23   57 1
    48   24   25 ar
    49   24   26 1
    50   26   31 ar
    51   26   27 ar
    52   27   28 ar
    53   27   58 1
    54   28   29 ar
    55   28   33 1
    56   29   30 ar
    57   29   59 1
    58   30   31 ar
    59   30   32 1
    60   31   60 1
    61   33   38 1
    62   33   34 1
    63   34   35 1
    64   34   61 1
    65   34   62 1
    66   35   36 1
    67   35   63 1
    68   35   64 1
    69   36   37 1
    70   37   38 1
    71   37   65 1
    72   37   66 1
    73   38   67 1
    74   38   68 1
@<TRIPOS>MOLECULE
CHEMBL568116__1
   68    73     0     0     0
SMALL
USER_CHARGES

@<TRIPOS>ATOM
      1 C1         -6.1598   -2.7659   -1.8169 C.3       1 <0>         0.0245
      2 N1         -5.1521   -2.6185   -0.7583 N.3       1 <0>        -0.5430
      3 C2         -3.7968   -2.8115   -1.2910 C.3       1 <0>         0.0391
      4 C3         -2.7712   -2.4730   -0.2039 C.3       1 <0>         0.1410
      5 N2         -3.0856   -3.2620    0.9969 N.pl3     1 <0>        -0.5876
      6 C4         -4.4630   -3.2272    1.5115 C.3       1 <0>         0.1409
      7 C5         -5.4219   -3.5359    0.3568 C.3       1 <0>         0.0396
      8 C6         -2.1029   -4.0231    1.6314 C.2       1 <0>         0.4844
      9 N3         -0.8253   -4.1179    1.2500 N.2       1 <0>        -0.5629
     10 C7         -0.1776   -4.9126    2.0642 C.2       1 <0>         0.2844
     11 N4         -1.0415   -5.3503    2.9992 N.pl3     1 <0>        -0.3273
     12 N5         -2.2804   -4.7587    2.7039 N.2       1 <0>        -0.3655
     13 C8         -0.7587   -6.2212    4.0616 C.ar      1 <0>         0.1397
     14 C9         -1.7843   -6.6694    4.8836 C.ar      1 <0>        -0.0898
     15 C10        -1.5063   -7.5261    5.9295 C.ar      1 <0>        -0.0917
     16 C11        -0.2005   -7.9403    6.1595 C.ar      1 <0>         0.1623
     17 C12         0.8252   -7.4922    5.3368 C.ar      1 <0>        -0.1215
     18 C13         0.5459   -6.6396    4.2879 C.ar      1 <0>        -0.1142
     19 N6          0.0817   -8.8084    7.2199 N.pl3     1 <0>        -0.6363
     20 C14        -0.8466   -9.7643    7.5982 C.ar      1 <0>         0.5630
     21 N7         -1.9481   -9.9158    6.8767 N.ar      1 <0>        -0.5547
     22 C15        -2.8588  -10.8180    7.2053 C.ar      1 <0>         0.1941
     23 C16        -2.6534  -11.6125    8.3197 C.ar      1 <0>        -0.2634
     24 C17        -1.4831  -11.4300    9.0606 C.ar      1 <0>         0.2600
     25 N8         -0.6084  -10.5067    8.6678 N.ar      1 <0>        -0.5539
     26 C18        -1.2166  -12.2564   10.2630 C.ar      1 <0>         0.0157
     27 C19        -0.1029  -11.9943   11.0575 C.ar      1 <0>        -0.1596
     28 C20         0.1415  -12.7698   12.1811 C.ar      1 <0>         0.2428
     29 C21        -0.7237  -13.8056   12.5120 C.ar      1 <0>        -0.2207
     30 C22        -1.8300  -14.0665   11.7225 C.ar      1 <0>         0.1484
     31 C23        -2.0830  -13.2934   10.6038 C.ar      1 <0>        -0.1838
     32 F1         -2.6676  -15.0752   12.0481 F         1 <0>        -0.1332
     33 N9          1.2577  -12.5099   12.9798 N.pl3     1 <0>        -0.6273
     34 C24         2.1155  -11.3416   12.7257 C.3       1 <0>         0.0847
     35 C25         2.2982  -10.5802   14.0436 C.3       1 <0>         0.0456
     36 O1          2.7447  -11.4880   15.0537 O.3       1 <0>        -0.3777
     37 C26         1.8174  -12.5346   15.3514 C.3       1 <0>         0.0454
     38 C27         1.6068  -13.3929   14.1040 C.3       1 <0>         0.0830
     39 H1         -7.1471   -2.5432   -1.4122 H         1 <0>         0.0708
     40 H2         -5.9362   -2.0753   -2.6300 H         1 <0>         0.0708
     41 H3         -6.1438   -3.7885   -2.1939 H         1 <0>         0.0256
     42 H4         -3.6713   -3.8496   -1.5988 H         1 <0>         0.0381
     43 H5         -3.6466   -2.1565   -2.1493 H         1 <0>         0.0889
     44 H6         -1.7699   -2.7231   -0.5545 H         1 <0>         0.0956
     45 H7         -2.8248   -1.4102    0.0319 H         1 <0>         0.0719
     46 H8         -4.5802   -3.9759    2.2950 H         1 <0>         0.0903
     47 H9         -4.6792   -2.2368    1.9122 H         1 <0>         0.0733
     48 H10        -6.4505   -3.4064    0.6937 H         1 <0>         0.0888
     49 H11        -5.2739   -4.5639    0.0261 H         1 <0>         0.0383
     50 H12         0.8686   -5.1721    1.9972 H         1 <0>         0.2216
     51 H13        -2.7996   -6.3473    4.7047 H         1 <0>         0.1398
     52 H14        -2.3038   -7.8741    6.5691 H         1 <0>         0.1439
     53 H15         1.8406   -7.8138    5.5156 H         1 <0>         0.1373
     54 H16         1.3427   -6.2947    3.6455 H         1 <0>         0.1356
     55 H17         0.9274   -8.7407    7.6902 H         1 <0>         0.4250
     56 H18        -3.7529  -10.9327    6.6105 H         1 <0>         0.1754
     57 H19        -3.3809  -12.3560    8.6100 H         1 <0>         0.1517
     58 H20         0.5690  -11.1891   10.7990 H         1 <0>         0.1431
     59 H21        -0.5322  -14.4087   13.3872 H         1 <0>         0.1392
     60 H22        -2.9494  -13.4963    9.9919 H         1 <0>         0.1406
     61 H23         3.0858  -11.6723   12.3552 H         1 <0>         0.0754
     62 H24         1.6426  -10.6922   11.9891 H         1 <0>         0.0958
     63 H25         3.0392   -9.7921   13.9091 H         1 <0>         0.1076
     64 H26         1.3477  -10.1397   14.3444 H         1 <0>         0.0570
     65 H27         2.2124  -13.1526   16.1577 H         1 <0>         0.1078
     66 H28         0.8651  -12.1012   15.6569 H         1 <0>         0.0568
     67 H29         0.7972  -14.1013   14.2796 H         1 <0>         0.0942
     68 H30         2.5250  -13.9337   13.8746 H         1 <0>         0.0759
@<TRIPOS>BOND
     1    1    2 1
     2    1   39 1
     3    1   40 1
     4    1   41 1
     5    2    7 1
     6    2    3 1
     7    3    4 1
     8    3   42 1
     9    3   43 1
    10    4    5 1
    11    4   44 1
    12    4   45 1
    13    5    6 1
    14    5    8 1
    15    6    7 1
    16    6   46 1
    17    6   47 1
    18    7   48 1
    19    7   49 1
    20    8   12 2
    21    8    9 1
    22    9   10 2
    23   10   11 1
    24   10   50 1
    25   11   12 1
    26   11   13 1
    27   13   18 ar
    28   13   14 ar
    29   14   15 ar
    30   14   51 1
    31   15   16 ar
    32   15   52 1
    33   16   17 ar
    34   16   19 1
    35   17   18 ar
    36   17   53 1
    37   18   54 1
    38   19   20 1
    39   19   55 1
    40   20   25 ar
    41   20   21 ar
    42   21   22 ar
    43   22   23 ar
    44   22   56 1
    45   23   24 ar
    46   23   57 1
    47   24   25 ar
    48   24   26 1
    49   26   31 ar
    50   26   27 ar
    51   27   28 ar
    52   27   58 1
    53   28   29 ar
    54   28   33 1
    55   29   30 ar
    56   29   59 1
    57   30   31 ar
    58   30   32 1
    59   31   60 1
    60   33   38 1
    61   33   34 1
    62   34   35 1
    63   34   61 1
    64   34   62 1
    65   35   36 1
    66   35   63 1
    67   35   64 1
    68   36   37 1
    69   37   38 1
    70   37   65 1
    71   37   66 1
    72   38   67 1
    73   38   68 1
@<TRIPOS>MOLECULE
CHEMBL252967
   64    68     0     0     0
SMALL
USER_CHARGES

@<TRIPOS>ATOM
      1 C1          1.4577    0.7706   -0.4906 C.3       1 <0>        -0.1526
      2 C2          0.9571   -0.6736   -0.4225 C.3       1 <0>        -0.1368
      3 C3         -0.5423   -0.6798   -0.1179 C.3       1 <0>         0.0865
      4 N1         -1.0216   -2.0626   -0.0527 N.pl3     1 <0>        -0.4290
      5 C4         -1.5036   -2.8097   -1.1049 C.2       1 <0>         0.0400
      6 C5         -1.8356   -4.0462   -0.5783 C.2       1 <0>         0.1023
      7 N2         -1.5532   -4.0111    0.7360 N.2       1 <0>        -0.4644
      8 C6         -1.0670   -2.8414    1.0477 C.2       1 <0>         0.2141
      9 C7         -0.6270   -2.4230    2.4270 C.3       1 <0>        -0.0083
     10 C8          0.4922   -3.3496    2.9106 C.3       1 <0>        -0.1381
     11 C9          0.8791   -2.9695    4.3415 C.3       1 <0>        -0.0049
     12 N3         -0.2877   -3.1086    5.2211 N.4       1 <0>        -0.3863
     13 C10        -1.3385   -2.1712    4.8067 C.3       1 <0>        -0.0048
     14 C11        -1.8107   -2.5207    3.3937 C.3       1 <0>        -0.1388
     15 C12         0.1074   -2.8180    6.6058 C.3       1 <0>        -0.0473
     16 C13        -2.3985   -5.1955   -1.3247 C.ar      1 <0>         0.0139
     17 C14        -3.2819   -4.9783   -2.3820 C.ar      1 <0>        -0.0669
     18 C15        -3.8035   -6.0517   -3.0741 C.ar      1 <0>        -0.0962
     19 C16        -3.4518   -7.3434   -2.7211 C.ar      1 <0>        -0.0243
     20 C17        -2.5752   -7.5656   -1.6714 C.ar      1 <0>        -0.0328
     21 C18        -2.0426   -6.4978   -0.9763 C.ar      1 <0>        -0.0698
     22 Cl1        -2.1400   -9.1883   -1.2342 Cl        1 <0>        -0.0427
     23 Cl2        -4.1121   -8.6895   -3.5963 Cl        1 <0>        -0.0409
     24 C19        -1.6390   -2.3792   -2.5081 C.ar      1 <0>         0.2862
     25 C20        -2.1005   -1.0922   -2.8170 C.ar      1 <0>        -0.2908
     26 C21        -2.2101   -0.7346   -4.1468 C.ar      1 <0>         0.2071
     27 N4         -1.8788   -1.6106   -5.0838 N.ar      1 <0>        -0.5597
     28 C22        -1.4450   -2.8216   -4.7649 C.ar      1 <0>         0.5821
     29 N5         -1.3191   -3.2063   -3.5049 N.ar      1 <0>        -0.5477
     30 N6         -1.1098   -3.7054   -5.7761 N.pl3     1 <0>        -0.6622
     31 C23        -1.2365   -3.2974   -7.1774 C.3       1 <0>         0.0915
     32 C24        -0.0936   -3.6641   -8.1261 C.3       1 <0>        -0.1928
     33 C25        -1.4315   -4.4005   -8.2195 C.3       1 <0>        -0.1872
     34 H1          2.5258    0.7750   -0.7076 H         1 <0>         0.0680
     35 H2          0.9247    1.3031   -1.2784 H         1 <0>         0.0633
     36 H3          1.2791    1.2626    0.4655 H         1 <0>         0.0596
     37 H4          1.1357   -1.1655   -1.3786 H         1 <0>         0.0721
     38 H5          1.4900   -1.2060    0.3653 H         1 <0>         0.0682
     39 H6         -0.7209   -0.1878    0.8382 H         1 <0>         0.0994
     40 H7         -1.0752   -0.1473   -0.9057 H         1 <0>         0.1067
     41 H8         -0.2641   -1.3956    2.3978 H         1 <0>         0.1018
     42 H9          0.1441   -4.3824    2.8899 H         1 <0>         0.1047
     43 H10         1.3594   -3.2439    2.2588 H         1 <0>         0.1130
     44 H11         1.6759   -3.6271    4.6888 H         1 <0>         0.1359
     45 H12         1.2272   -1.9367    4.3610 H         1 <0>         0.1294
     46 H13        -2.1788   -2.2396    5.4975 H         1 <0>         0.1359
     47 H14        -0.9431   -1.1555    4.8163 H         1 <0>         0.1293
     48 H15        -2.5896   -1.8225    3.0872 H         1 <0>         0.1135
     49 H16        -2.2066   -3.5362    3.3830 H         1 <0>         0.1048
     50 H17         0.4907   -1.7995    6.6681 H         1 <0>         0.1215
     51 H18        -0.7584   -2.9210    7.2599 H         1 <0>         0.1248
     52 H19         0.8831   -3.5178    6.9168 H         1 <0>         0.1247
     53 H20        -3.5575   -3.9712   -2.6583 H         1 <0>         0.1247
     54 H21        -4.4878   -5.8840   -3.8926 H         1 <0>         0.1436
     55 H22        -1.3553   -6.6713   -0.1615 H         1 <0>         0.1436
     56 H23        -2.3645   -0.3968   -2.0340 H         1 <0>         0.1411
     57 H24        -2.5627    0.2491   -4.4198 H         1 <0>         0.1741
     58 H25        -0.7909   -4.5949   -5.5569 H         1 <0>         0.4162
     59 H26        -1.7469   -2.3493   -7.3466 H         1 <0>         0.1448
     60 H27         0.1482   -2.9572   -8.9197 H         1 <0>         0.1057
     61 H28         0.7527   -4.2090   -7.7077 H         1 <0>         0.0967
     62 H29        -1.4654   -5.4299   -7.8625 H         1 <0>         0.0986
     63 H30        -2.0698   -4.1780   -9.0745 H         1 <0>         0.1078
     64 H31        -0.6393   -4.0527    5.1649 H         1 <0>         0.4279
@<TRIPOS>BOND
     1    1    2 1
     2    1   34 1
     3    1   35 1
     4    1   36 1
     5    2    3 1
     6    2   37 1
     7    2   38 1
     8    3    4 1
     9    3   39 1
    10    3   40 1
    11    4    8 1
    12    4    5 1
    13    5    6 2
    14    5   24 1
    15    6    7 1
    16    6   16 1
    17    7    8 2
    18    8    9 1
    19    9   14 1
    20    9   10 1
    21    9   41 1
    22   10   11 1
    23   10   42 1
    24   10   43 1
    25   11   12 1
    26   11   44 1
    27   11   45 1
    28   12   13 1
    29   12   15 1
    30   12   64 1
    31   13   14 1
    32   13   46 1
    33   13   47 1
    34   14   48 1
    35   14   49 1
    36   15   50 1
    37   15   51 1
    38   15   52 1
    39   16   21 ar
    40   16   17 ar
    41   17   18 ar
    42   17   53 1
    43   18   19 ar
    44   18   54 1
    45   19   20 ar
    46   19   23 1
    47   20   21 ar
    48   20   22 1
    49   21   55 1
    50   24   29 ar
    51   24   25 ar
    52   25   26 ar
    53   25   56 1
    54   26   27 ar
    55   26   57 1
    56   27   28 ar
    57   28   29 ar
    58   28   30 1
    59   30   31 1
    60   30   58 1
    61   31   33 1
    62   31   32 1
    63   31   59 1
    64   32   33 1
    65   32   60 1
    66   32   61 1
    67   33   62 1
    68   33   63 1
@<TRIPOS>MOLECULE
CHEMBL252967__1
   65    69     0     0     0
SMALL
USER_CHARGES

@<TRIPOS>ATOM
      1 C1          0.2312    1.4240    0.2875 C.3       1 <0>        -0.1592
      2 C2          0.1584   -0.1030    0.2247 C.3       1 <0>        -0.1479
      3 C3         -1.2945   -0.5362    0.0189 C.3       1 <0>         0.0702
      4 N1         -1.3554   -1.9940   -0.1129 N.pl3     1 <0>        -0.3734
      5 C4         -1.3482   -2.7079   -1.2910 C.2       1 <0>         0.1151
      6 C5         -1.4194   -4.0430   -0.9320 C.2       1 <0>         0.1497
      7 N2         -1.4660   -4.0951    0.4109 N.pl3     1 <0>        -0.4678
      8 C6         -1.4229   -2.8854    0.8972 C.cat     1 <0>         0.2996
      9 C7         -1.4487   -2.5370    2.3632 C.3       1 <0>        -0.0460
     10 C8         -0.0292   -2.6137    2.9328 C.3       1 <0>        -0.1508
     11 C9         -0.0735   -2.3368    4.4371 C.3       1 <0>        -0.0057
     12 N3         -0.9219   -3.3361    5.0974 N.4       1 <0>        -0.3891
     13 C10        -2.3009   -3.2204    4.6079 C.3       1 <0>        -0.0039
     14 C11        -2.3423   -3.5313    3.1102 C.3       1 <0>        -0.1535
     15 C12        -0.8989   -3.1134    6.5492 C.3       1 <0>        -0.0503
     16 C13        -1.4407   -5.2005   -1.8566 C.ar      1 <0>        -0.0766
     17 C14        -2.2529   -5.1757   -2.9902 C.ar      1 <0>        -0.0239
     18 C15        -2.2695   -6.2559   -3.8482 C.ar      1 <0>        -0.1086
     19 C16        -1.4817   -7.3639   -3.5860 C.ar      1 <0>         0.0066
     20 C17        -0.6732   -7.3945   -2.4613 C.ar      1 <0>        -0.0439
     21 C18        -0.6446   -6.3159   -1.5994 C.ar      1 <0>        -0.0699
     22 Cl1         0.3109   -8.7879   -2.1390 Cl        1 <0>        -0.0199
     23 Cl2        -1.5075   -8.7196   -4.6700 Cl        1 <0>        -0.0121
     24 C19        -1.2792   -2.1606   -2.6579 C.ar      1 <0>         0.2564
     25 C20        -0.6706   -0.9211   -2.8990 C.ar      1 <0>        -0.2848
     26 C21        -0.6299   -0.4501   -4.1970 C.ar      1 <0>         0.2259
     27 N4         -1.1625   -1.1771   -5.1681 N.ar      1 <0>        -0.5389
     28 C22        -1.7323   -2.3462   -4.9133 C.ar      1 <0>         0.5927
     29 N5         -1.7900   -2.8395   -3.6866 N.ar      1 <0>        -0.5563
     30 N6         -2.2764   -3.0728   -5.9582 N.pl3     1 <0>        -0.6529
     31 C23        -2.2180   -2.5472   -7.3244 C.3       1 <0>         0.0786
     32 C24        -1.8364   -3.5217   -8.4405 C.3       1 <0>        -0.1864
     33 C25        -3.2801   -3.0313   -8.3136 C.3       1 <0>        -0.1820
     34 H1          1.2662    1.7327    0.4341 H         1 <0>         0.0815
     35 H2         -0.1446    1.8443   -0.6453 H         1 <0>         0.0724
     36 H3         -0.3762    1.7828    1.1184 H         1 <0>         0.0678
     37 H4          0.7657   -0.4618   -0.6063 H         1 <0>         0.0886
     38 H5          0.5342   -0.5233    1.1575 H         1 <0>         0.0771
     39 H6         -1.8917   -0.2236    0.8754 H         1 <0>         0.1265
     40 H7         -1.6871   -0.0729   -0.8863 H         1 <0>         0.1363
     41 H8         -1.8400   -1.5278    2.4911 H         1 <0>         0.1444
     42 H9          0.3800   -3.6086    2.7577 H         1 <0>         0.1029
     43 H10         0.5998   -1.8695    2.4441 H         1 <0>         0.1284
     44 H11         0.9356   -2.3904    4.8458 H         1 <0>         0.1485
     45 H12        -0.4826   -1.3415    4.6110 H         1 <0>         0.1408
     46 H13        -2.9362   -3.9263    5.1428 H         1 <0>         0.1491
     47 H14        -2.6625   -2.2063    4.7782 H         1 <0>         0.1417
     48 H15        -3.3667   -3.4431    2.7484 H         1 <0>         0.1330
     49 H16        -1.9811   -4.5453    2.9388 H         1 <0>         0.0961
     50 H17        -1.2748   -2.1142    6.7695 H         1 <0>         0.1275
     51 H18        -1.5287   -3.8550    7.0406 H         1 <0>         0.1309
     52 H19         0.1238   -3.2056    6.9148 H         1 <0>         0.1309
     53 H20        -2.8683   -4.3123   -3.1959 H         1 <0>         0.1767
     54 H21        -2.8985   -6.2373   -4.7259 H         1 <0>         0.1550
     55 H22        -0.0103   -6.3382   -0.7256 H         1 <0>         0.1409
     56 H23        -0.2439   -0.3479   -2.0893 H         1 <0>         0.1509
     57 H24        -0.1688    0.5012   -4.4178 H         1 <0>         0.1859
     58 H25        -2.6964   -3.9300   -5.7859 H         1 <0>         0.4155
     59 H26        -1.8764   -1.5163   -7.4173 H         1 <0>         0.1489
     60 H27        -1.2434   -3.1320   -9.2679 H         1 <0>         0.1109
     61 H28        -1.6287   -4.5538   -8.1583 H         1 <0>         0.0993
     62 H29        -4.0223   -3.7409   -7.9479 H         1 <0>         0.1002
     63 H30        -3.6370   -2.3190   -9.0575 H         1 <0>         0.1127
     64 H31        -0.5708   -4.2602    4.8953 H         1 <0>         0.4273
     65 H32        -1.5195   -4.9080    0.9375 H         1 <0>         0.4603
@<TRIPOS>BOND
     1    1    2 1
     2    1   34 1
     3    1   35 1
     4    1   36 1
     5    2    3 1
     6    2   37 1
     7    2   38 1
     8    3    4 1
     9    3   39 1
    10    3   40 1
    11    4    8 1
    12    4    5 1
    13    5    6 2
    14    5   24 1
    15    6    7 1
    16    6   16 1
    17    7    8 2
    18    7   65 1
    19    8    9 1
    20    9   14 1
    21    9   10 1
    22    9   41 1
    23   10   11 1
    24   10   42 1
    25   10   43 1
    26   11   12 1
    27   11   44 1
    28   11   45 1
    29   12   13 1
    30   12   15 1
    31   12   64 1
    32   13   14 1
    33   13   46 1
    34   13   47 1
    35   14   48 1
    36   14   49 1
    37   15   50 1
    38   15   51 1
    39   15   52 1
    40   16   21 ar
    41   16   17 ar
    42   17   18 ar
    43   17   53 1
    44   18   19 ar
    45   18   54 1
    46   19   20 ar
    47   19   23 1
    48   20   21 ar
    49   20   22 1
    50   21   55 1
    51   24   29 ar
    52   24   25 ar
    53   25   26 ar
    54   25   56 1
    55   26   27 ar
    56   26   57 1
    57   27   28 ar
    58   28   29 ar
    59   28   30 1
    60   30   31 1
    61   30   58 1
    62   31   33 1
    63   31   32 1
    64   31   59 1
    65   32   33 1
    66   32   60 1
    67   32   61 1
    68   33   62 1
    69   33   63 1
@<TRIPOS>MOLECULE
CHEMBL400054
   43    47     0     0     0
SMALL
USER_CHARGES

@<TRIPOS>ATOM
      1 C1          0.0316    1.3954    0.0544 C.ar      1 <0>        -0.1232
      2 C2          1.2093    2.1310    0.0400 C.ar      1 <0>        -0.0897
      3 C3          2.4232    1.4726    0.0175 C.ar      1 <0>        -0.0787
      4 C4          2.4489    0.0946    0.0097 C.ar      1 <0>        -0.1117
      5 C5          1.2660   -0.6777    0.0239 C.ar      1 <0>        -0.0932
      6 C6          0.0425    0.0362    0.0468 C.ar      1 <0>        -0.0690
      7 C7          1.4770   -2.1147    0.0128 C.2       1 <0>        -0.0989
      8 C8          2.7452   -2.5931   -0.0095 C.2       1 <0>        -0.0703
      9 S1          3.7446   -1.1171   -0.0171 S.3       1 <0>         0.0779
     10 C9          3.1919   -4.0005   -0.0237 C.2       1 <0>         0.1740
     11 C10         4.3713   -4.5297   -0.7192 C.ar      1 <0>        -0.1444
     12 C11         5.3641   -3.9546   -1.5155 C.ar      1 <0>        -0.0421
     13 C12         6.3660   -4.7514   -2.0347 C.ar      1 <0>         0.1032
     14 C13         6.3867   -6.1201   -1.7662 C.ar      1 <0>        -0.0825
     15 C14         5.4216   -6.6928   -0.9893 C.ar      1 <0>        -0.1200
     16 C15         4.4004   -5.9104   -0.4540 C.ar      1 <0>         0.1211
     17 N1          3.3168   -6.1871    0.3427 N.pl3     1 <0>        -0.4978
     18 H1          3.0809   -7.0636    0.6847 H         1 <0>         0.4455
     19 N2          2.6099   -5.0057    0.5881 N.2       1 <0>        -0.2194
     20 N3          7.3655   -4.1824   -2.8348 N.am      1 <0>        -0.6699
     21 C16         7.0655   -3.1644   -3.6656 C.2       1 <0>         0.5211
     22 O1          5.9512   -2.6855   -3.6603 O.2       1 <0>        -0.5077
     23 C17         8.1147   -2.6211   -4.6011 C.3       1 <0>        -0.1460
     24 C18         7.5112   -1.5275   -5.5157 C.3       1 <0>        -0.1412
     25 C19         8.1731   -1.8444   -6.8809 C.3       1 <0>         0.0450
     26 O2          8.2241   -3.2871   -6.9038 O.3       1 <0>        -0.3718
     27 C20         8.5836   -3.7154   -5.5796 C.3       1 <0>         0.0567
     28 H2         -0.9148    1.9152    0.0766 H         1 <0>         0.1294
     29 H3          1.1763    3.2105    0.0460 H         1 <0>         0.1361
     30 H4          3.3459    2.0337    0.0058 H         1 <0>         0.1332
     31 H5         -0.8917   -0.5055    0.0584 H         1 <0>         0.1275
     32 H6          0.6359   -2.7921    0.0226 H         1 <0>         0.1430
     33 H7          5.3485   -2.8951   -1.7241 H         1 <0>         0.1495
     34 H8          7.1747   -6.7333   -2.1778 H         1 <0>         0.1379
     35 H9          5.4493   -7.7538   -0.7895 H         1 <0>         0.1363
     36 H10         8.2734   -4.5212   -2.7909 H         1 <0>         0.4125
     37 H11         8.9597   -2.2261   -4.0372 H         1 <0>         0.1165
     38 H12         6.4274   -1.6261   -5.5767 H         1 <0>         0.0986
     39 H13         7.7911   -0.5327   -5.1693 H         1 <0>         0.0886
     40 H14         7.5608   -1.4689   -7.7008 H         1 <0>         0.0991
     41 H15         9.1778   -1.4241   -6.9271 H         1 <0>         0.0653
     42 H16         9.6646   -3.8365   -5.5099 H         1 <0>         0.0727
     43 H17         8.0873   -4.6577   -5.3473 H         1 <0>         0.0868
@<TRIPOS>BOND
     1    1    6 ar
     2    1    2 ar
     3    1   28 1
     4    2    3 ar
     5    2   29 1
     6    3    4 ar
     7    3   30 1
     8    4    9 1
     9    4    5 ar
    10    5    6 ar
    11    5    7 1
    12    6   31 1
    13    7    8 2
    14    7   32 1
    15    8    9 1
    16    8   10 1
    17   10   19 2
    18   10   11 1
    19   11   16 ar
    20   11   12 ar
    21   12   13 ar
    22   12   33 1
    23   13   14 ar
    24   13   20 1
    25   14   15 ar
    26   14   34 1
    27   15   16 ar
    28   15   35 1
    29   16   17 1
    30   17   18 1
    31   17   19 1
    32   20   21 am
    33   20   36 1
    34   21   22 2
    35   21   23 1
    36   23   27 1
    37   23   24 1
    38   23   37 1
    39   24   25 1
    40   24   38 1
    41   24   39 1
    42   25   26 1
    43   25   40 1
    44   25   41 1
    45   26   27 1
    46   27   42 1
    47   27   43 1
@<TRIPOS>MOLECULE
CHEMBL400054__1
   43    47     0     0     0
SMALL
USER_CHARGES

@<TRIPOS>ATOM
      1 C1         -0.6109    0.9635   -1.0624 C.ar      1 <0>        -0.1236
      2 C2          0.4980    1.7992   -1.0795 C.ar      1 <0>        -0.0899
      3 C3          1.7615    1.2567   -0.9499 C.ar      1 <0>        -0.0785
      4 C4          1.9043   -0.1065   -0.8053 C.ar      1 <0>        -0.1159
      5 C5          0.7933   -0.9790   -0.7846 C.ar      1 <0>        -0.0945
      6 C6         -0.4844   -0.3824   -0.9205 C.ar      1 <0>        -0.0694
      7 C7          1.1254   -2.3838   -0.6245 C.2       1 <0>        -0.0995
      8 C8          2.4276   -2.7430   -0.5108 C.2       1 <0>        -0.0750
      9 S1          3.2962   -1.1898   -0.6139 S.3       1 <0>         0.0913
     10 C9          2.9917   -4.0972   -0.3415 C.2       1 <0>         0.1737
     11 C10         4.2606   -4.5843   -0.8958 C.ar      1 <0>        -0.1427
     12 C11         5.2584   -4.0053   -1.6831 C.ar      1 <0>        -0.0429
     13 C12         6.3604   -4.7556   -2.0449 C.ar      1 <0>         0.1068
     14 C13         6.4765   -6.0815   -1.6275 C.ar      1 <0>        -0.0836
     15 C14         5.5076   -6.6576   -0.8578 C.ar      1 <0>        -0.1184
     16 C15         4.3865   -5.9217   -0.4798 C.ar      1 <0>         0.1204
     17 N1          3.2732   -6.2135    0.2693 N.pl3     1 <0>        -0.4978
     18 H1          3.0873   -7.0680    0.6888 H         1 <0>         0.4456
     19 N2          2.4524   -5.0833    0.3369 N.2       1 <0>        -0.2190
     20 N3          7.3655   -4.1824   -2.8348 N.am      1 <0>        -0.6697
     21 C16         7.6610   -2.8739   -2.7047 C.2       1 <0>         0.5227
     22 O1          7.1252   -2.2144   -1.8391 O.2       1 <0>        -0.5057
     23 C17         8.6569   -2.2302   -3.6346 C.3       1 <0>        -0.1471
     24 C18         8.9436   -0.7645   -3.2086 C.3       1 <0>        -0.1362
     25 C19        10.3849   -0.5785   -3.7462 C.3       1 <0>         0.0490
     26 O2         11.0270   -1.8476   -3.5449 O.3       1 <0>        -0.3778
     27 C20        10.0457   -2.8898   -3.4941 C.3       1 <0>         0.0620
     28 H2         -1.5969    1.3934   -1.1596 H         1 <0>         0.1292
     29 H3          0.3734    2.8659   -1.1938 H         1 <0>         0.1360
     30 H4          2.6317    1.8963   -0.9621 H         1 <0>         0.1334
     31 H5         -1.3677   -1.0038   -0.9113 H         1 <0>         0.1271
     32 H6          0.3463   -3.1312   -0.5961 H         1 <0>         0.1426
     33 H7          5.1689   -2.9789   -2.0068 H         1 <0>         0.1442
     34 H8          7.3424   -6.6587   -1.9167 H         1 <0>         0.1381
     35 H9          5.6098   -7.6852   -0.5418 H         1 <0>         0.1365
     36 H10         7.8488   -4.7274   -3.4755 H         1 <0>         0.4126
     37 H11         8.3081   -2.2765   -4.6662 H         1 <0>         0.1184
     38 H12         8.2523   -0.0730   -3.6904 H         1 <0>         0.0920
     39 H13         8.9119   -0.6571   -2.1244 H         1 <0>         0.0945
     40 H14        10.3637   -0.3293   -4.8072 H         1 <0>         0.0659
     41 H15        10.9008    0.2000   -3.1842 H         1 <0>         0.0921
     42 H16        10.1115   -3.4136   -2.5405 H         1 <0>         0.0740
     43 H17        10.2071   -3.5899   -4.3138 H         1 <0>         0.0790
@<TRIPOS>BOND
     1    1    6 ar
     2    1    2 ar
     3    1   28 1
     4    2    3 ar
     5    2   29 1
     6    3    4 ar
     7    3   30 1
     8    4    9 1
     9    4    5 ar
    10    5    6 ar
    11    5    7 1
    12    6   31 1
    13    7    8 2
    14    7   32 1
    15    8    9 1
    16    8   10 1
    17   10   19 2
    18   10   11 1
    19   11   16 ar
    20   11   12 ar
    21   12   13 ar
    22   12   33 1
    23   13   14 ar
    24   13   20 1
    25   14   15 ar
    26   14   34 1
    27   15   16 ar
    28   15   35 1
    29   16   17 1
    30   17   18 1
    31   17   19 1
    32   20   21 am
    33   20   36 1
    34   21   22 2
    35   21   23 1
    36   23   27 1
    37   23   24 1
    38   23   37 1
    39   24   25 1
    40   24   38 1
    41   24   39 1
    42   25   26 1
    43   25   40 1
    44   25   41 1
    45   26   27 1
    46   27   42 1
    47   27   43 1
@<TRIPOS>MOLECULE
CHEMBL252761
   27    30     0     0     0
SMALL
USER_CHARGES

@<TRIPOS>ATOM
      1 C1         -0.0166    1.3755    0.0096 C.ar      1 <0>        -0.1144
      2 C2          1.1636    2.1048    0.0023 C.ar      1 <0>        -0.0872
      3 C3          2.3872    1.4626   -0.0131 C.ar      1 <0>        -0.0883
      4 C4          2.4287    0.0770   -0.0207 C.ar      1 <0>         0.0147
      5 C5          1.2227   -0.6756   -0.0131 C.ar      1 <0>        -0.1423
      6 C6          0.0021   -0.0041    0.0020 C.ar      1 <0>        -0.0562
      7 C7          1.3118   -2.1366   -0.0216 C.2       1 <0>         0.4145
      8 O1          0.3867   -2.7771    0.4321 O.2       1 <0>        -0.4392
      9 C8          2.4868   -2.8696   -0.5628 C.3       1 <0>        -0.0892
     10 C9          2.6382   -4.2562   -0.0562 C.2       1 <0>        -0.1438
     11 C10         3.7433   -4.7516    0.4832 C.2       1 <0>        -0.0918
     12 C11         4.9304   -3.8966    0.6629 C.2       1 <0>        -0.1465
     13 C12         4.8758   -2.6632    0.1883 C.2       1 <0>         0.0964
     14 C13         3.7567   -2.0863   -0.6663 C.3       1 <0>        -0.0542
     15 C14         3.6629   -0.7047   -0.0371 C.2       1 <0>         0.1017
     16 N1          4.8308   -0.4564    0.4755 N.2       1 <0>        -0.1920
     17 N2          5.7051   -1.5581    0.2823 N.pl3     1 <0>        -0.6080
     18 H1         -0.9634    1.8949    0.0260 H         1 <0>         0.1362
     19 H2          1.1257    3.1841    0.0083 H         1 <0>         0.1371
     20 H3          3.3029    2.0351   -0.0196 H         1 <0>         0.1397
     21 H4         -0.9238   -0.5600    0.0081 H         1 <0>         0.1407
     22 H5          2.2138   -3.0324   -1.6055 H         1 <0>         0.1126
     23 H6          1.7831   -4.9115   -0.1324 H         1 <0>         0.1268
     24 H7          3.7737   -5.7859    0.7927 H         1 <0>         0.1329
     25 H8          5.8135   -4.2640    1.1645 H         1 <0>         0.1339
     26 H9          4.0730   -2.0174   -1.7072 H         1 <0>         0.1231
     27 H10         6.6734   -1.5405    0.2278 H         1 <0>         0.4429
@<TRIPOS>BOND
     1    1    6 ar
     2    1    2 ar
     3    1   18 1
     4    2    3 ar
     5    2   19 1
     6    3    4 ar
     7    3   20 1
     8    4   15 1
     9    4    5 ar
    10    5    6 ar
    11    5    7 1
    12    6   21 1
    13    7    8 2
    14    7    9 1
    15    9   14 1
    16    9   10 1
    17    9   22 1
    18   10   11 2
    19   10   23 1
    20   11   12 1
    21   11   24 1
    22   12   13 2
    23   12   25 1
    24   13   17 1
    25   13   14 1
    26   14   15 1
    27   14   26 1
    28   15   16 2
    29   16   17 1
    30   17   27 1
@<TRIPOS>MOLECULE
CHEMBL252761__1
   27    30     0     0     0
SMALL
USER_CHARGES

@<TRIPOS>ATOM
      1 C1         -0.0166    1.3748    0.0096 C.ar      1 <0>        -0.1138
      2 C2          1.1651    2.1015    0.0022 C.ar      1 <0>        -0.0866
      3 C3          2.3862    1.4570   -0.0067 C.ar      1 <0>        -0.0920
      4 C4          2.4312    0.0688   -0.0097 C.ar      1 <0>         0.0230
      5 C5          1.2213   -0.6803   -0.0134 C.ar      1 <0>        -0.1437
      6 C6          0.0021   -0.0041    0.0020 C.ar      1 <0>        -0.0586
      7 C7          1.2635   -2.1583   -0.0440 C.2       1 <0>         0.4135
      8 O1          0.2874   -2.8227    0.2347 O.2       1 <0>        -0.4302
      9 C8          2.5588   -2.8030   -0.4331 C.3       1 <0>        -0.0892
     10 C9          2.6771   -4.2807   -0.2528 C.2       1 <0>        -0.1608
     11 C10         3.9043   -4.8293   -0.2362 C.2       1 <0>        -0.0881
     12 C11         5.1109   -3.9867   -0.3801 C.2       1 <0>        -0.1859
     13 C12         4.9807   -2.6776   -0.1513 C.2       1 <0>         0.1070
     14 C13         3.6671   -2.1491    0.4180 C.3       1 <0>        -0.0813
     15 C14         3.6912   -0.6815   -0.0039 C.2       1 <0>         0.1015
     16 N1          4.9141   -0.4127   -0.2764 N.2       1 <0>        -0.1909
     17 N2          5.7434   -1.5520   -0.2576 N.pl3     1 <0>        -0.5621
     18 H1         -0.9628    1.8953    0.0260 H         1 <0>         0.1366
     19 H2          1.1297    3.1809    0.0031 H         1 <0>         0.1373
     20 H3          3.3019    2.0296   -0.0116 H         1 <0>         0.1402
     21 H4         -0.9248   -0.5584    0.0084 H         1 <0>         0.1420
     22 H5          2.7549   -2.5759   -1.4810 H         1 <0>         0.1155
     23 H6          1.7962   -4.8950   -0.1379 H         1 <0>         0.1344
     24 H7          4.0102   -5.8974   -0.1160 H         1 <0>         0.1284
     25 H8          6.0623   -4.4143   -0.6603 H         1 <0>         0.1308
     26 H9          3.5526   -2.3142    1.4893 H         1 <0>         0.1330
     27 H10         6.7118   -1.5377   -0.3122 H         1 <0>         0.4400
@<TRIPOS>BOND
     1    1    6 ar
     2    1    2 ar
     3    1   18 1
     4    2    3 ar
     5    2   19 1
     6    3    4 ar
     7    3   20 1
     8    4   15 1
     9    4    5 ar
    10    5    6 ar
    11    5    7 1
    12    6   21 1
    13    7    8 2
    14    7    9 1
    15    9   14 1
    16    9   10 1
    17    9   22 1
    18   10   11 2
    19   10   23 1
    20   11   12 1
    21   11   24 1
    22   12   13 2
    23   12   25 1
    24   13   17 1
    25   13   14 1
    26   14   15 1
    27   14   26 1
    28   15   16 2
    29   16   17 1
    30   17   27 1
@<TRIPOS>MOLECULE
CHEMBL252761__2
   27    30     0     0     0
SMALL
USER_CHARGES

@<TRIPOS>ATOM
      1 C1         -0.0166    1.3748    0.0096 C.ar      1 <0>        -0.1138
      2 C2          1.1652    2.1015    0.0022 C.ar      1 <0>        -0.0866
      3 C3          2.3861    1.4570   -0.0200 C.ar      1 <0>        -0.0921
      4 C4          2.4310    0.0688   -0.0327 C.ar      1 <0>         0.0230
      5 C5          1.2213   -0.6803   -0.0131 C.ar      1 <0>        -0.1437
      6 C6          0.0021   -0.0041    0.0020 C.ar      1 <0>        -0.0586
      7 C7          1.2640   -2.1585    0.0007 C.2       1 <0>         0.4134
      8 O1          0.2828   -2.8201   -0.2668 O.2       1 <0>        -0.4302
      9 C8          2.5667   -2.8072    0.3574 C.3       1 <0>        -0.0892
     10 C9          2.6812   -4.2829    0.1589 C.2       1 <0>        -0.1608
     11 C10         3.9079   -4.8311    0.1126 C.2       1 <0>        -0.0881
     12 C11         5.1172   -3.9901    0.2422 C.2       1 <0>        -0.1861
     13 C12         4.9828   -2.6785    0.0300 C.2       1 <0>         0.1070
     14 C13         3.6583   -2.1441   -0.5082 C.3       1 <0>        -0.0813
     15 C14         3.6907   -0.6811   -0.0713 C.2       1 <0>         0.1016
     16 N1          4.9187   -0.4151    0.1801 N.2       1 <0>        -0.1910
     17 N2          5.7476   -1.5542    0.1337 N.pl3     1 <0>        -0.5620
     18 H1         -0.9628    1.8953    0.0260 H         1 <0>         0.1366
     19 H2          1.1299    3.1808    0.0136 H         1 <0>         0.1373
     20 H3          3.3018    2.0296   -0.0278 H         1 <0>         0.1402
     21 H4         -0.9248   -0.5584    0.0081 H         1 <0>         0.1420
     22 H5          2.7833   -2.5913    1.4036 H         1 <0>         0.1155
     23 H6          1.7983   -4.8961    0.0553 H         1 <0>         0.1344
     24 H7          4.0113   -5.8978   -0.0205 H         1 <0>         0.1283
     25 H8          6.0737   -4.4206    0.4993 H         1 <0>         0.1308
     26 H9          3.5228   -2.2977   -1.5788 H         1 <0>         0.1330
     27 H10         6.7168   -1.5404    0.1706 H         1 <0>         0.4401
@<TRIPOS>BOND
     1    1    6 ar
     2    1    2 ar
     3    1   18 1
     4    2    3 ar
     5    2   19 1
     6    3    4 ar
     7    3   20 1
     8    4   15 1
     9    4    5 ar
    10    5    6 ar
    11    5    7 1
    12    6   21 1
    13    7    8 2
    14    7    9 1
    15    9   14 1
    16    9   10 1
    17    9   22 1
    18   10   11 2
    19   10   23 1
    20   11   12 1
    21   11   24 1
    22   12   13 2
    23   12   25 1
    24   13   17 1
    25   13   14 1
    26   14   15 1
    27   14   26 1
    28   15   16 2
    29   16   17 1
    30   17   27 1
@<TRIPOS>MOLECULE
CHEMBL252761__3
   27    30     0     0     0
SMALL
USER_CHARGES

@<TRIPOS>ATOM
      1 C1         -0.0166    1.3755    0.0096 C.ar      1 <0>        -0.1143
      2 C2          1.1636    2.1048    0.0023 C.ar      1 <0>        -0.0873
      3 C3          2.3873    1.4625   -0.0124 C.ar      1 <0>        -0.0883
      4 C4          2.4289    0.0769   -0.0194 C.ar      1 <0>         0.0146
      5 C5          1.2228   -0.6755   -0.0126 C.ar      1 <0>        -0.1423
      6 C6          0.0021   -0.0041    0.0020 C.ar      1 <0>        -0.0563
      7 C7          1.3124   -2.1368   -0.0208 C.2       1 <0>         0.4145
      8 O1          0.3816   -2.7733   -0.4687 O.2       1 <0>        -0.4391
      9 C8          2.4955   -2.8739    0.4957 C.3       1 <0>        -0.0893
     10 C9          2.6387   -4.2572   -0.0220 C.2       1 <0>        -0.1438
     11 C10         3.7349   -4.7490   -0.5827 C.2       1 <0>        -0.0917
     12 C11         4.9188   -3.8926   -0.7763 C.2       1 <0>        -0.1467
     13 C12         4.8718   -2.6621   -0.2931 C.2       1 <0>         0.0964
     14 C13         3.7675   -2.0914    0.5842 C.3       1 <0>        -0.0542
     15 C14         3.6629   -0.7054   -0.0324 C.2       1 <0>         0.1017
     16 N1          4.8211   -0.4539   -0.5651 N.2       1 <0>        -0.1921
     17 N2          5.6988   -1.5562   -0.3946 N.pl3     1 <0>        -0.6077
     18 H1         -0.9633    1.8950    0.0260 H         1 <0>         0.1362
     19 H2          1.1258    3.1841    0.0077 H         1 <0>         0.1371
     20 H3          3.3030    2.0350   -0.0187 H         1 <0>         0.1396
     21 H4         -0.9238   -0.5600    0.0070 H         1 <0>         0.1406
     22 H5          2.2395   -3.0435    1.5415 H         1 <0>         0.1126
     23 H6          1.7851   -4.9130    0.0643 H         1 <0>         0.1267
     24 H7          3.7605   -5.7814   -0.8987 H         1 <0>         0.1329
     25 H8          5.7938   -4.2570   -1.2940 H         1 <0>         0.1339
     26 H9          4.1012   -2.0307    1.6201 H         1 <0>         0.1231
     27 H10         6.6680   -1.5387   -0.3579 H         1 <0>         0.4429
@<TRIPOS>BOND
     1    1    6 ar
     2    1    2 ar
     3    1   18 1
     4    2    3 ar
     5    2   19 1
     6    3    4 ar
     7    3   20 1
     8    4   15 1
     9    4    5 ar
    10    5    6 ar
    11    5    7 1
    12    6   21 1
    13    7    8 2
    14    7    9 1
    15    9   14 1
    16    9   10 1
    17    9   22 1
    18   10   11 2
    19   10   23 1
    20   11   12 1
    21   11   24 1
    22   12   13 2
    23   12   25 1
    24   13   17 1
    25   13   14 1
    26   14   15 1
    27   14   26 1
    28   15   16 2
    29   16   17 1
    30   17   27 1
@<TRIPOS>MOLECULE
CHEMBL252762
   56    61     0     0     0
SMALL
USER_CHARGES

@<TRIPOS>ATOM
      1 C1         -0.0168    1.3905    0.0097 C.ar      1 <0>        -0.0560
      2 C2          1.1696    2.0941    0.0021 C.ar      1 <0>        -0.1594
      3 C3          2.3789    1.4177   -0.0135 C.ar      1 <0>         0.1063
      4 C4          2.4028    0.0322   -0.0216 C.ar      1 <0>        -0.1605
      5 C5          1.2217   -0.6804   -0.0142 C.ar      1 <0>        -0.0333
      6 C6          0.0021   -0.0041    0.0020 C.ar      1 <0>        -0.0147
      7 C7         -1.2693   -0.7646    0.0106 C.2       1 <0>         0.1250
      8 C8         -1.5084   -1.9678   -0.6282 C.2       1 <0>         0.0207
      9 N1         -2.8185   -2.2997   -0.3439 N.pl3     1 <0>        -0.4608
     10 C9         -3.3238   -1.3207    0.4311 C.2       1 <0>         0.2267
     11 N2         -2.4006   -0.4158    0.6447 N.2       1 <0>        -0.4654
     12 C10        -4.7695   -1.6281    0.7730 C.3       1 <0>        -0.0433
     13 C11        -5.1813   -2.7089   -0.2516 C.3       1 <0>        -0.1261
     14 C12        -3.8193   -3.3457   -0.6015 C.3       1 <0>         0.1185
     15 H1         -3.6331   -4.2108    0.0349 H         1 <0>         0.1101
     16 C13        -3.7894   -3.7554   -2.0753 C.3       1 <0>         0.0885
     17 N3         -4.7060   -4.8781   -2.2888 N.pl3     1 <0>        -0.4583
     18 C14        -4.3984   -6.2081   -2.1885 C.2       1 <0>        -0.0579
     19 C15        -5.5266   -6.8907   -2.4622 C.2       1 <0>        -0.0210
     20 N4         -6.4966   -6.0016   -2.7225 N.2       1 <0>        -0.4880
     21 C16        -6.0136   -4.7940   -2.6156 C.2       1 <0>         0.1853
     22 C17        -0.5570   -2.7401   -1.4471 C.ar      1 <0>         0.2990
     23 C18        -0.7143   -4.1239   -1.6070 C.ar      1 <0>        -0.3033
     24 C19         0.2027   -4.8042   -2.3843 C.ar      1 <0>         0.2056
     25 N5          1.1958   -4.1353   -2.9516 N.ar      1 <0>        -0.5676
     26 C20         1.3220   -2.8267   -2.7845 C.ar      1 <0>         0.5777
     27 N6          0.4649   -2.1327   -2.0530 N.ar      1 <0>        -0.5500
     28 N7          2.3747   -2.1677   -3.3956 N.pl3     1 <0>        -0.6818
     29 C21         3.3314   -2.9165   -4.2142 C.3       1 <0>         0.1380
     30 C22         4.7090   -3.0854   -3.5521 C.3       1 <0>        -0.1537
     31 C23         5.3199   -2.8338   -4.9407 C.3       1 <0>        -0.1391
     32 C24         4.0356   -2.0584   -5.2785 C.3       1 <0>        -0.1492
     33 F1          3.5383    2.1112   -0.0213 F         1 <0>        -0.1399
     34 H2         -0.9588    1.9185    0.0260 H         1 <0>         0.1367
     35 H3          1.1560    3.1740    0.0081 H         1 <0>         0.1374
     36 H4          3.3478   -0.4906   -0.0342 H         1 <0>         0.1324
     37 H5          1.2414   -1.7602   -0.0212 H         1 <0>         0.1212
     38 H6         -4.8470   -2.0162    1.7885 H         1 <0>         0.1059
     39 H7         -5.3866   -0.7372    0.6562 H         1 <0>         0.1089
     40 H8         -5.8496   -3.4412    0.2012 H         1 <0>         0.1103
     41 H9         -5.6386   -2.2576   -1.1322 H         1 <0>         0.0938
     42 H10        -4.0977   -2.9121   -2.6932 H         1 <0>         0.1044
     43 H11        -2.7777   -4.0553   -2.3486 H         1 <0>         0.1094
     44 H12        -3.4359   -6.6293   -1.9383 H         1 <0>         0.1744
     45 H13        -5.6319   -7.9655   -2.4706 H         1 <0>         0.1721
     46 H14        -6.5672   -3.8790   -2.7661 H         1 <0>         0.2044
     47 H15        -1.5327   -4.6456   -1.1333 H         1 <0>         0.1350
     48 H16         0.1112   -5.8707   -2.5280 H         1 <0>         0.1698
     49 H17         2.4790   -1.2100   -3.2817 H         1 <0>         0.4148
     50 H18         2.9171   -3.8453   -4.6063 H         1 <0>         0.1199
     51 H19         4.9424   -2.3076   -2.8250 H         1 <0>         0.0833
     52 H20         4.8900   -4.0905   -3.1711 H         1 <0>         0.0723
     53 H21         6.2134   -2.2099   -4.9182 H         1 <0>         0.0750
     54 H22         5.4505   -3.7407   -5.5312 H         1 <0>         0.0852
     55 H23         3.6729   -2.2343   -6.2912 H         1 <0>         0.0753
     56 H24         4.0848   -0.9998   -5.0234 H         1 <0>         0.0859
@<TRIPOS>BOND
     1    1    6 ar
     2    1    2 ar
     3    1   34 1
     4    2    3 ar
     5    2   35 1
     6    3    4 ar
     7    3   33 1
     8    4    5 ar
     9    4   36 1
    10    5    6 ar
    11    5   37 1
    12    6    7 1
    13    7   11 1
    14    7    8 2
    15    8    9 1
    16    8   22 1
    17    9   14 1
    18    9   10 1
    19   10   11 2
    20   10   12 1
    21   12   13 1
    22   12   38 1
    23   12   39 1
    24   13   14 1
    25   13   40 1
    26   13   41 1
    27   14   15 1
    28   14   16 1
    29   16   17 1
    30   16   42 1
    31   16   43 1
    32   17   21 1
    33   17   18 1
    34   18   19 2
    35   18   44 1
    36   19   20 1
    37   19   45 1
    38   20   21 2
    39   21   46 1
    40   22   27 ar
    41   22   23 ar
    42   23   24 ar
    43   23   47 1
    44   24   25 ar
    45   24   48 1
    46   25   26 ar
    47   26   27 ar
    48   26   28 1
    49   28   29 1
    50   28   49 1
    51   29   32 1
    52   29   30 1
    53   29   50 1
    54   30   31 1
    55   30   51 1
    56   30   52 1
    57   31   32 1
    58   31   53 1
    59   31   54 1
    60   32   55 1
    61   32   56 1
@<TRIPOS>MOLECULE
CHEMBL252762__1
   57    62     0     0     0
SMALL
USER_CHARGES

@<TRIPOS>ATOM
      1 C1         -0.0168    1.3905    0.0097 C.ar      1 <0>        -0.0548
      2 C2          1.1696    2.0941    0.0021 C.ar      1 <0>        -0.1607
      3 C3          2.3789    1.4177   -0.0135 C.ar      1 <0>         0.1482
      4 C4          2.4028    0.0322   -0.0216 C.ar      1 <0>        -0.1679
      5 C5          1.2217   -0.6804   -0.0142 C.ar      1 <0>        -0.0067
      6 C6          0.0021   -0.0041    0.0020 C.ar      1 <0>        -0.0985
      7 C7         -1.2693   -0.7646    0.0106 C.2       1 <0>         0.1572
      8 C8         -1.5620   -1.8622    0.7996 C.2       1 <0>         0.1083
      9 N1         -2.8506   -2.2369    0.4733 N.pl3     1 <0>        -0.4081
     10 C9         -3.2900   -1.3874   -0.4752 C.cat     1 <0>         0.3047
     11 N2         -2.3524   -0.5119   -0.7422 N.pl3     1 <0>        -0.4609
     12 C10        -4.7052   -1.7542   -0.8803 C.3       1 <0>        -0.0620
     13 C11        -4.8925   -3.1928   -0.3487 C.3       1 <0>        -0.1264
     14 C12        -3.8770   -3.2334    0.8133 C.3       1 <0>         0.1028
     15 H1         -4.3657   -2.9668    1.7504 H         1 <0>         0.1412
     16 C13        -3.2493   -4.6246    0.9196 C.3       1 <0>         0.0895
     17 N3         -4.2598   -5.5828    1.3745 N.pl3     1 <0>        -0.4672
     18 C14        -4.5470   -5.9052    2.6734 C.2       1 <0>        -0.0608
     19 C15        -5.5346   -6.8200    2.6387 C.2       1 <0>        -0.0092
     20 N4         -5.8421   -7.0501    1.3536 N.2       1 <0>        -0.4780
     21 C16        -5.0860   -6.3087    0.5908 C.2       1 <0>         0.1862
     22 C17        -0.6772   -2.5028    1.7890 C.ar      1 <0>         0.2680
     23 C18        -1.2146   -3.2373    2.8552 C.ar      1 <0>        -0.2872
     24 C19        -0.3450   -3.8196    3.7567 C.ar      1 <0>         0.2229
     25 N5          0.9606   -3.6687    3.5892 N.ar      1 <0>        -0.5459
     26 C20         1.4431   -2.9690    2.5723 C.ar      1 <0>         0.5869
     27 N6          0.6486   -2.3978    1.6814 N.ar      1 <0>        -0.5543
     28 N7          2.8141   -2.8368    2.4355 N.pl3     1 <0>        -0.6734
     29 C21         3.7114   -3.4661    3.4077 C.3       1 <0>         0.1308
     30 C22         4.3910   -2.4649    4.3567 C.3       1 <0>        -0.1531
     31 C23         5.6667   -3.3108    4.2086 C.3       1 <0>        -0.1394
     32 C24         5.1121   -3.7667    2.8487 C.3       1 <0>        -0.1480
     33 F1          3.5383    2.1112   -0.0213 F         1 <0>        -0.1234
     34 H2         -0.9588    1.9185    0.0260 H         1 <0>         0.1355
     35 H3          1.1560    3.1740    0.0081 H         1 <0>         0.1498
     36 H4          3.3478   -0.4906   -0.0342 H         1 <0>         0.1464
     37 H5          1.2414   -1.7602   -0.0212 H         1 <0>         0.1679
     38 H6         -5.4225   -1.0789   -0.4138 H         1 <0>         0.1405
     39 H7         -4.8091   -1.7320   -1.9651 H         1 <0>         0.1382
     40 H8         -5.9085   -3.3449    0.0156 H         1 <0>         0.1361
     41 H9         -4.6397   -3.9273   -1.1134 H         1 <0>         0.1125
     42 H10        -2.8734   -4.9292   -0.0571 H         1 <0>         0.1125
     43 H11        -2.4261   -4.5983    1.6336 H         1 <0>         0.1148
     44 H12        -4.0724   -5.5033    3.5565 H         1 <0>         0.1786
     45 H13        -5.9978   -7.2867    3.4954 H         1 <0>         0.1768
     46 H14        -5.1144   -6.2821   -0.4885 H         1 <0>         0.2074
     47 H15        -2.2831   -3.3449    2.9693 H         1 <0>         0.1425
     48 H16        -0.7255   -4.3919    4.5898 H         1 <0>         0.1823
     49 H17         3.1809   -2.3275    1.6959 H         1 <0>         0.4145
     50 H18         3.2543   -4.3132    3.9191 H         1 <0>         0.1248
     51 H19         4.4817   -1.4615    3.9408 H         1 <0>         0.0838
     52 H20         3.9782   -2.4703    5.3655 H         1 <0>         0.0756
     53 H21         6.5777   -2.7172    4.1318 H         1 <0>         0.0790
     54 H22         5.7448   -4.1150    4.9402 H         1 <0>         0.0890
     55 H23         5.2814   -4.8231    2.6400 H         1 <0>         0.0797
     56 H24         5.3999   -3.1192    2.0204 H         1 <0>         0.0867
     57 H25        -2.4283    0.2083   -1.3876 H         1 <0>         0.4641
@<TRIPOS>BOND
     1    1    6 ar
     2    1    2 ar
     3    1   34 1
     4    2    3 ar
     5    2   35 1
     6    3    4 ar
     7    3   33 1
     8    4    5 ar
     9    4   36 1
    10    5    6 ar
    11    5   37 1
    12    6    7 1
    13    7   11 1
    14    7    8 2
    15    8    9 1
    16    8   22 1
    17    9   14 1
    18    9   10 1
    19   10   11 2
    20   10   12 1
    21   11   57 1
    22   12   13 1
    23   12   38 1
    24   12   39 1
    25   13   14 1
    26   13   40 1
    27   13   41 1
    28   14   15 1
    29   14   16 1
    30   16   17 1
    31   16   42 1
    32   16   43 1
    33   17   21 1
    34   17   18 1
    35   18   19 2
    36   18   44 1
    37   19   20 1
    38   19   45 1
    39   20   21 2
    40   21   46 1
    41   22   27 ar
    42   22   23 ar
    43   23   24 ar
    44   23   47 1
    45   24   25 ar
    46   24   48 1
    47   25   26 ar
    48   26   27 ar
    49   26   28 1
    50   28   29 1
    51   28   49 1
    52   29   32 1
    53   29   30 1
    54   29   50 1
    55   30   31 1
    56   30   51 1
    57   30   52 1
    58   31   32 1
    59   31   53 1
    60   31   54 1
    61   32   55 1
    62   32   56 1
@<TRIPOS>MOLECULE
CHEMBL252762__2
   57    62     0     0     0
SMALL
USER_CHARGES

@<TRIPOS>ATOM
      1 C1         -0.0168    1.3905    0.0097 C.ar      1 <0>        -0.0521
      2 C2          1.1696    2.0941    0.0021 C.ar      1 <0>        -0.1589
      3 C3          2.3789    1.4177   -0.0135 C.ar      1 <0>         0.1150
      4 C4          2.4028    0.0322   -0.0216 C.ar      1 <0>        -0.1615
      5 C5          1.2217   -0.6804   -0.0142 C.ar      1 <0>        -0.0316
      6 C6          0.0021   -0.0041    0.0020 C.ar      1 <0>        -0.0286
      7 C7         -1.2693   -0.7646    0.0106 C.2       1 <0>         0.1431
      8 C8         -1.5084   -1.9678   -0.6282 C.2       1 <0>         0.0162
      9 N1         -2.8185   -2.2997   -0.3439 N.pl3     1 <0>        -0.4708
     10 C9         -3.3238   -1.3207    0.4311 C.2       1 <0>         0.2314
     11 N2         -2.4006   -0.4158    0.6447 N.2       1 <0>        -0.4579
     12 C10        -4.7695   -1.6281    0.7730 C.3       1 <0>        -0.0437
     13 C11        -5.1813   -2.7089   -0.2516 C.3       1 <0>        -0.1359
     14 C12        -3.8193   -3.3457   -0.6015 C.3       1 <0>         0.1199
     15 H1         -3.6331   -4.2108    0.0349 H         1 <0>         0.1166
     16 C13        -3.7894   -3.7554   -2.0753 C.3       1 <0>         0.0715
     17 N3         -4.7060   -4.8781   -2.2888 N.pl3     1 <0>        -0.4066
     18 C14        -4.3985   -6.2081   -2.1880 C.2       1 <0>         0.0244
     19 C15        -5.5267   -6.8907   -2.4619 C.2       1 <0>         0.0119
     20 N4         -6.4965   -6.0016   -2.7228 N.pl3     1 <0>        -0.4717
     21 C16        -6.0135   -4.7940   -2.6160 C.cat     1 <0>         0.2900
     22 C17        -0.5570   -2.7401   -1.4471 C.ar      1 <0>         0.3011
     23 C18        -0.7143   -4.1239   -1.6070 C.ar      1 <0>        -0.3219
     24 C19         0.2027   -4.8042   -2.3843 C.ar      1 <0>         0.2087
     25 N5          1.1958   -4.1353   -2.9516 N.ar      1 <0>        -0.5656
     26 C20         1.3220   -2.8267   -2.7845 C.ar      1 <0>         0.5843
     27 N6          0.4649   -2.1327   -2.0530 N.ar      1 <0>        -0.5487
     28 N7          2.3747   -2.1677   -3.3956 N.pl3     1 <0>        -0.6759
     29 C21         3.3314   -2.9165   -4.2142 C.3       1 <0>         0.1346
     30 C22         4.7090   -3.0854   -3.5521 C.3       1 <0>        -0.1532
     31 C23         5.3199   -2.8338   -4.9407 C.3       1 <0>        -0.1394
     32 C24         4.0356   -2.0584   -5.2785 C.3       1 <0>        -0.1487
     33 F1          3.5383    2.1112   -0.0213 F         1 <0>        -0.1357
     34 H2         -0.9588    1.9185    0.0260 H         1 <0>         0.1373
     35 H3          1.1560    3.1740    0.0081 H         1 <0>         0.1404
     36 H4          3.3478   -0.4906   -0.0342 H         1 <0>         0.1346
     37 H5          1.2414   -1.7602   -0.0212 H         1 <0>         0.1204
     38 H6         -4.8470   -2.0162    1.7885 H         1 <0>         0.1111
     39 H7         -5.3866   -0.7372    0.6562 H         1 <0>         0.1146
     40 H8         -5.8496   -3.4412    0.2012 H         1 <0>         0.1102
     41 H9         -5.6386   -2.2576   -1.1322 H         1 <0>         0.0954
     42 H10        -4.0977   -2.9121   -2.6932 H         1 <0>         0.1327
     43 H11        -2.7777   -4.0553   -2.3486 H         1 <0>         0.1403
     44 H12        -3.4361   -6.6292   -1.9374 H         1 <0>         0.2242
     45 H13        -5.6320   -7.9655   -2.4700 H         1 <0>         0.2274
     46 H14        -6.5670   -3.8791   -2.7670 H         1 <0>         0.2609
     47 H15        -1.5327   -4.6456   -1.1333 H         1 <0>         0.1293
     48 H16         0.1112   -5.8707   -2.5280 H         1 <0>         0.1693
     49 H17         2.4790   -1.2100   -3.2817 H         1 <0>         0.4172
     50 H18         2.9171   -3.8453   -4.6063 H         1 <0>         0.1207
     51 H19         4.9424   -2.3076   -2.8250 H         1 <0>         0.0845
     52 H20         4.8900   -4.0905   -3.1711 H         1 <0>         0.0735
     53 H21         6.2134   -2.2099   -4.9182 H         1 <0>         0.0776
     54 H22         5.4505   -3.7407   -5.5312 H         1 <0>         0.0865
     55 H23         3.6729   -2.2343   -6.2912 H         1 <0>         0.0765
     56 H24         4.0848   -0.9998   -5.0234 H         1 <0>         0.0872
     57 H25        -7.4133   -6.2216   -2.9511 H         1 <0>         0.4678
@<TRIPOS>BOND
     1    1    6 ar
     2    1    2 ar
     3    1   34 1
     4    2    3 ar
     5    2   35 1
     6    3    4 ar
     7    3   33 1
     8    4    5 ar
     9    4   36 1
    10    5    6 ar
    11    5   37 1
    12    6    7 1
    13    7   11 1
    14    7    8 2
    15    8    9 1
    16    8   22 1
    17    9   14 1
    18    9   10 1
    19   10   11 2
    20   10   12 1
    21   12   13 1
    22   12   38 1
    23   12   39 1
    24   13   14 1
    25   13   40 1
    26   13   41 1
    27   14   15 1
    28   14   16 1
    29   16   17 1
    30   16   42 1
    31   16   43 1
    32   17   21 1
    33   17   18 1
    34   18   19 2
    35   18   44 1
    36   19   20 1
    37   19   45 1
    38   20   21 2
    39   20   57 1
    40   21   46 1
    41   22   27 ar
    42   22   23 ar
    43   23   24 ar
    44   23   47 1
    45   24   25 ar
    46   24   48 1
    47   25   26 ar
    48   26   27 ar
    49   26   28 1
    50   28   29 1
    51   28   49 1
    52   29   32 1
    53   29   30 1
    54   29   50 1
    55   30   31 1
    56   30   51 1
    57   30   52 1
    58   31   32 1
    59   31   53 1
    60   31   54 1
    61   32   55 1
    62   32   56 1
@<TRIPOS>MOLECULE
CHEMBL199247
   51    54     0     0     0
SMALL
USER_CHARGES

@<TRIPOS>ATOM
      1 C1         15.1821   -3.2240   -1.4655 C.ar      1 <0>        -0.0910
      2 C2         14.6361   -1.9972   -1.1318 C.ar      1 <0>        -0.1262
      3 C3         13.2906   -1.8924   -0.8456 C.ar      1 <0>        -0.0586
      4 C4         12.4798   -3.0274   -0.8933 C.ar      1 <0>        -0.1396
      5 C5         13.0368   -4.2620   -1.2306 C.ar      1 <0>        -0.0871
      6 C6         14.3838   -4.3530   -1.5145 C.ar      1 <0>        -0.1270
      7 C7         11.0371   -2.9226   -0.5873 C.2       1 <0>         0.5612
      8 O1         10.5548   -1.8463   -0.2935 O.2       1 <0>        -0.5319
      9 N1         10.2568   -4.0205   -0.6342 N.am      1 <0>        -0.7284
     10 C8          8.8273   -3.9166   -0.3310 C.3       1 <0>         0.1239
     11 C9          8.1779   -5.2963   -0.4557 C.3       1 <0>        -0.1483
     12 C10         6.6849   -5.1879   -0.1391 C.3       1 <0>         0.1043
     13 N2          6.0690   -6.5140   -0.2291 N.pl3     1 <0>        -0.4450
     14 C11         5.8299   -7.3560    0.7987 C.2       1 <0>         0.2040
     15 N3          5.2710   -8.4453    0.3497 N.2       1 <0>        -0.4756
     16 C12         5.1231   -8.3589   -0.9849 C.2       1 <0>         0.0730
     17 C13         5.6218   -7.1293   -1.3766 C.2       1 <0>         0.0153
     18 C14         5.6681   -6.5878   -2.7484 C.ar      1 <0>         0.0307
     19 C15         5.1104   -5.3377   -3.0487 C.ar      1 <0>        -0.1670
     20 C16         5.1763   -4.8707   -4.3439 C.ar      1 <0>         0.1072
     21 N4          5.7539   -5.5833   -5.2931 N.ar      1 <0>        -0.4792
     22 C17         6.2914   -6.7649   -5.0540 C.ar      1 <0>         0.1074
     23 C18         6.2761   -7.3065   -3.7866 C.ar      1 <0>        -0.1466
     24 C19         4.5310   -9.3883   -1.8707 C.ar      1 <0>        -0.0168
     25 C20         3.7873   -9.0067   -2.9870 C.ar      1 <0>        -0.0738
     26 C21         3.2379   -9.9689   -3.8088 C.ar      1 <0>        -0.1512
     27 C22         3.4241  -11.3127   -3.5266 C.ar      1 <0>         0.1027
     28 C23         4.1622  -11.6968   -2.4186 C.ar      1 <0>        -0.1528
     29 C24         4.7204  -10.7420   -1.5940 C.ar      1 <0>        -0.0616
     30 F1          2.8837  -12.2514   -4.3341 F         1 <0>        -0.1381
     31 H1         16.2351   -3.2998   -1.6930 H         1 <0>         0.1295
     32 H2         15.2648   -1.1198   -1.0950 H         1 <0>         0.1322
     33 H3         12.8658   -0.9343   -0.5850 H         1 <0>         0.1370
     34 H4         12.4148   -5.1441   -1.2689 H         1 <0>         0.1238
     35 H5         14.8161   -5.3076   -1.7756 H         1 <0>         0.1304
     36 H6         10.6417   -4.8794   -0.8687 H         1 <0>         0.4014
     37 H7          8.6975   -3.5445    0.6853 H         1 <0>         0.0759
     38 H8          8.3561   -3.2285   -1.0328 H         1 <0>         0.0741
     39 H9          8.3077   -5.6684   -1.4720 H         1 <0>         0.0785
     40 H10         8.6491   -5.9845    0.2461 H         1 <0>         0.0824
     41 H11         6.5550   -4.7945    0.8691 H         1 <0>         0.1073
     42 H12         6.2095   -4.5171   -0.8548 H         1 <0>         0.0975
     43 H13         6.0658   -7.1580    1.8339 H         1 <0>         0.2124
     44 H14         4.6360   -4.7493   -2.2772 H         1 <0>         0.1337
     45 H15         4.7491   -3.9086   -4.5855 H         1 <0>         0.1598
     46 H16         6.7532   -7.3131   -5.8618 H         1 <0>         0.1606
     47 H17         6.7219   -8.2718   -3.5973 H         1 <0>         0.1378
     48 H18         3.6414   -7.9596   -3.2076 H         1 <0>         0.1278
     49 H19         2.6615   -9.6744   -4.6734 H         1 <0>         0.1374
     50 H20         4.3045  -12.7454   -2.2027 H         1 <0>         0.1390
     51 H21         5.2996  -11.0424   -0.7334 H         1 <0>         0.1382
@<TRIPOS>BOND
     1    1    6 ar
     2    1    2 ar
     3    1   31 1
     4    2    3 ar
     5    2   32 1
     6    3    4 ar
     7    3   33 1
     8    4    5 ar
     9    4    7 1
    10    5    6 ar
    11    5   34 1
    12    6   35 1
    13    7    8 2
    14    7    9 am
    15    9   10 1
    16    9   36 1
    17   10   11 1
    18   10   37 1
    19   10   38 1
    20   11   12 1
    21   11   39 1
    22   11   40 1
    23   12   13 1
    24   12   41 1
    25   12   42 1
    26   13   17 1
    27   13   14 1
    28   14   15 2
    29   14   43 1
    30   15   16 1
    31   16   17 2
    32   16   24 1
    33   17   18 1
    34   18   23 ar
    35   18   19 ar
    36   19   20 ar
    37   19   44 1
    38   20   21 ar
    39   20   45 1
    40   21   22 ar
    41   22   23 ar
    42   22   46 1
    43   23   47 1
    44   24   29 ar
    45   24   25 ar
    46   25   26 ar
    47   25   48 1
    48   26   27 ar
    49   26   49 1
    50   27   28 ar
    51   27   30 1
    52   28   29 ar
    53   28   50 1
    54   29   51 1
@<TRIPOS>MOLECULE
CHEMBL199247__1
   52    55     0     0     0
SMALL
USER_CHARGES

@<TRIPOS>ATOM
      1 C1         -0.9458    0.5569   -1.5094 C.ar      1 <0>        -0.0863
      2 C2          0.1012    1.4208   -1.2418 C.ar      1 <0>        -0.1236
      3 C3          1.3542    0.9218   -0.9515 C.ar      1 <0>        -0.0564
      4 C4          1.5644   -0.4578   -0.9282 C.ar      1 <0>        -0.1452
      5 C5          0.5038   -1.3238   -1.1992 C.ar      1 <0>        -0.0881
      6 C6         -0.7442   -0.8118   -1.4881 C.ar      1 <0>        -0.1270
      7 C7          2.9046   -0.9996   -0.6184 C.2       1 <0>         0.5651
      8 O1          3.8265   -0.2430   -0.3832 O.2       1 <0>        -0.5261
      9 N1          3.1043   -2.3323   -0.5967 N.am      1 <0>        -0.7335
     10 C8          4.4324   -2.8691   -0.2897 C.3       1 <0>         0.1241
     11 C9          4.3865   -4.3979   -0.3306 C.3       1 <0>        -0.1537
     12 C10         5.7735   -4.9585   -0.0100 C.3       1 <0>         0.0915
     13 N2          5.7044   -6.4200    0.0638 N.pl3     1 <0>        -0.3975
     14 C11         5.6056   -7.1601    1.1885 C.cat     1 <0>         0.2994
     15 N3          5.5673   -8.4257    0.8764 N.pl3     1 <0>        -0.4696
     16 C12         5.6393   -8.5625   -0.4603 C.2       1 <0>         0.1082
     17 C13         5.7222   -7.2920   -1.0014 C.2       1 <0>         0.1064
     18 C14         5.8143   -6.9421   -2.4320 C.ar      1 <0>        -0.0168
     19 C15         4.8637   -7.4079   -3.3503 C.ar      1 <0>        -0.1310
     20 C16         4.9888   -7.0563   -4.6772 C.ar      1 <0>         0.1176
     21 N4          5.9854   -6.2931   -5.0855 N.ar      1 <0>        -0.4575
     22 C17         6.9020   -5.8330   -4.2547 C.ar      1 <0>         0.1177
     23 C18         6.8517   -6.1299   -2.9096 C.ar      1 <0>        -0.1508
     24 C19         5.6272   -9.8381   -1.2137 C.ar      1 <0>        -0.0867
     25 C20         6.5602  -10.0617   -2.2259 C.ar      1 <0>        -0.0427
     26 C21         6.5448  -11.2510   -2.9246 C.ar      1 <0>        -0.1476
     27 C22         5.6044  -12.2228   -2.6222 C.ar      1 <0>         0.1430
     28 C23         4.6754  -12.0054   -1.6173 C.ar      1 <0>        -0.1483
     29 C24         4.6864  -10.8216   -0.9091 C.ar      1 <0>        -0.0600
     30 F1          5.5931  -13.3858   -3.3095 F         1 <0>        -0.1208
     31 H1         -1.9259    0.9525   -1.7317 H         1 <0>         0.1321
     32 H2         -0.0626    2.4881   -1.2604 H         1 <0>         0.1349
     33 H3          2.1708    1.5972   -0.7431 H         1 <0>         0.1380
     34 H4          0.6599   -2.3924   -1.1831 H         1 <0>         0.1211
     35 H5         -1.5657   -1.4807   -1.6979 H         1 <0>         0.1313
     36 H6          2.3687   -2.9360   -0.7844 H         1 <0>         0.4018
     37 H7          5.1497   -2.5073   -1.0264 H         1 <0>         0.0788
     38 H8          4.7359   -2.5412    0.7045 H         1 <0>         0.0799
     39 H9          3.6692   -4.7597    0.4061 H         1 <0>         0.0890
     40 H10         4.0830   -4.7258   -1.3248 H         1 <0>         0.0880
     41 H11         6.4732   -4.6669   -0.7932 H         1 <0>         0.1261
     42 H12         6.1133   -4.5621    0.9468 H         1 <0>         0.1339
     43 H13         5.5651   -6.7647    2.1927 H         1 <0>         0.2668
     44 H14         4.0459   -8.0330   -3.0234 H         1 <0>         0.1441
     45 H15         4.2615   -7.4105   -5.3928 H         1 <0>         0.1707
     46 H16         7.7002   -5.2118   -4.6334 H         1 <0>         0.1707
     47 H17         7.6026   -5.7461   -2.2349 H         1 <0>         0.1414
     48 H18         7.2933   -9.3048   -2.4626 H         1 <0>         0.1389
     49 H19         7.2667  -11.4249   -3.7089 H         1 <0>         0.1521
     50 H20         3.9444  -12.7657   -1.3852 H         1 <0>         0.1523
     51 H21         3.9649  -10.6550   -0.1229 H         1 <0>         0.1387
     52 H22         5.4981   -9.1564    1.5106 H         1 <0>         0.4661
@<TRIPOS>BOND
     1    1    6 ar
     2    1    2 ar
     3    1   31 1
     4    2    3 ar
     5    2   32 1
     6    3    4 ar
     7    3   33 1
     8    4    5 ar
     9    4    7 1
    10    5    6 ar
    11    5   34 1
    12    6   35 1
    13    7    8 2
    14    7    9 am
    15    9   10 1
    16    9   36 1
    17   10   11 1
    18   10   37 1
    19   10   38 1
    20   11   12 1
    21   11   39 1
    22   11   40 1
    23   12   13 1
    24   12   41 1
    25   12   42 1
    26   13   17 1
    27   13   14 1
    28   14   15 2
    29   14   43 1
    30   15   16 1
    31   15   52 1
    32   16   17 2
    33   16   24 1
    34   17   18 1
    35   18   23 ar
    36   18   19 ar
    37   19   20 ar
    38   19   44 1
    39   20   21 ar
    40   20   45 1
    41   21   22 ar
    42   22   23 ar
    43   22   46 1
    44   23   47 1
    45   24   29 ar
    46   24   25 ar
    47   25   26 ar
    48   25   48 1
    49   26   27 ar
    50   26   49 1
    51   27   28 ar
    52   27   30 1
    53   28   29 ar
    54   28   50 1
    55   29   51 1
@<TRIPOS>MOLECULE
CHEMBL365963
   48    52     0     0     0
SMALL
USER_CHARGES

@<TRIPOS>ATOM
      1 C1         -0.0165    1.3620    0.0095 C.ar      1 <0>        -0.1459
      2 C2          1.1697    2.0834    0.0021 C.ar      1 <0>        -0.0976
      3 C3          2.3856    1.4362   -0.0134 C.ar      1 <0>        -0.1294
      4 C4          2.4281    0.0456   -0.0212 C.ar      1 <0>         0.0978
      5 C5          1.2234   -0.6807   -0.0132 C.ar      1 <0>        -0.1089
      6 C6          0.0021   -0.0041    0.0020 C.ar      1 <0>        -0.0702
      7 C7          1.6036   -2.0953   -0.0245 C.2       1 <0>        -0.1985
      8 C8          2.9451   -2.1410   -0.0380 C.2       1 <0>         0.0505
      9 N1          3.4551   -0.8713   -0.0363 N.pl3     1 <0>        -0.4825
     10 C9          4.8815   -0.5372   -0.0482 C.3       1 <0>         0.1012
     11 C10         5.3632   -0.3066    1.3856 C.3       1 <0>         0.1241
     12 N2          6.7896    0.0275    1.3737 N.pl3     1 <0>        -0.7016
     13 C11         7.4511    0.2803    2.5629 C.ar      1 <0>         0.5844
     14 N3          6.7788    0.2102    3.7030 N.ar      1 <0>        -0.5764
     15 C12         7.3745    0.4446    4.8642 C.ar      1 <0>         0.2054
     16 C13         8.7158    0.7665    4.8832 C.ar      1 <0>        -0.2813
     17 C14         9.4039    0.8340    3.6625 C.ar      1 <0>         0.3125
     18 N4          8.7396    0.5805    2.5324 N.ar      1 <0>        -0.6068
     19 C15        10.8371    1.1742    3.6286 C.2       1 <0>        -0.1384
     20 C16        11.5105    1.2382    2.4075 C.2       1 <0>         0.2610
     21 N5         11.0230    1.0272    1.1489 N.pl3     1 <0>        -0.6086
     22 C17        11.8575    1.1384    0.0515 C.ar      1 <0>         0.1243
     23 C18        11.5215    0.9553   -1.3011 C.ar      1 <0>        -0.1198
     24 C19        12.4660    1.0998   -2.2887 C.ar      1 <0>        -0.0763
     25 C20        13.7764    1.4301   -1.9869 C.ar      1 <0>        -0.1189
     26 C21        14.1365    1.6171   -0.6639 C.ar      1 <0>        -0.0385
     27 C22        13.1921    1.4722    0.3246 C.ar      1 <0>        -0.1571
     28 S1         13.2253    1.6241    2.0943 S.3       1 <0>         0.0777
     29 C23        11.5392    1.4391    4.8482 C.1       1 <0>         0.2755
     30 N6         12.0962    1.6493    5.8157 N.1       1 <0>        -0.4138
     31 H1         -0.9613    1.8849    0.0259 H         1 <0>         0.1227
     32 H2          1.1388    3.1630    0.0081 H         1 <0>         0.1246
     33 H3          3.3028    2.0064   -0.0198 H         1 <0>         0.1163
     34 H4         -0.9246   -0.5587    0.0082 H         1 <0>         0.1225
     35 H5          0.9320   -2.9411   -0.0220 H         1 <0>         0.1481
     36 H6          3.5346   -3.0459   -0.0490 H         1 <0>         0.1685
     37 H7          5.4433   -1.3588   -0.4925 H         1 <0>         0.0969
     38 H8          5.0376    0.3686   -0.6341 H         1 <0>         0.0915
     39 H9          4.8013    0.5150    1.8299 H         1 <0>         0.0757
     40 H10         5.2071   -1.2123    1.9715 H         1 <0>         0.0761
     41 H11         7.2704    0.0715    0.5324 H         1 <0>         0.4105
     42 H12         6.8150    0.3845    5.7860 H         1 <0>         0.1708
     43 H13         9.2241    0.9623    5.8158 H         1 <0>         0.1431
     44 H14        10.0887    0.7983    1.0244 H         1 <0>         0.4323
     45 H15        10.5073    0.6971   -1.5678 H         1 <0>         0.1327
     46 H16        12.1808    0.9527   -3.3199 H         1 <0>         0.1391
     47 H17        14.5080    1.5400   -2.7738 H         1 <0>         0.1432
     48 H18        15.1538    1.8754   -0.4094 H         1 <0>         0.1413
@<TRIPOS>BOND
     1    1    6 ar
     2    1    2 ar
     3    1   31 1
     4    2    3 ar
     5    2   32 1
     6    3    4 ar
     7    3   33 1
     8    4    9 1
     9    4    5 ar
    10    5    6 ar
    11    5    7 1
    12    6   34 1
    13    7    8 2
    14    7   35 1
    15    8    9 1
    16    8   36 1
    17    9   10 1
    18   10   11 1
    19   10   37 1
    20   10   38 1
    21   11   12 1
    22   11   39 1
    23   11   40 1
    24   12   13 1
    25   12   41 1
    26   13   18 ar
    27   13   14 ar
    28   14   15 ar
    29   15   16 ar
    30   15   42 1
    31   16   17 ar
    32   16   43 1
    33   17   18 ar
    34   17   19 1
    35   19   20 2
    36   19   29 1
    37   20   28 1
    38   20   21 1
    39   21   22 1
    40   21   44 1
    41   22   27 ar
    42   22   23 ar
    43   23   24 ar
    44   23   45 1
    45   24   25 ar
    46   24   46 1
    47   25   26 ar
    48   25   47 1
    49   26   27 ar
    50   26   48 1
    51   27   28 1
    52   29   30 3
@<TRIPOS>MOLECULE
CHEMBL365963__1
   48    52     0     0     0
SMALL
USER_CHARGES

@<TRIPOS>ATOM
      1 C1         -0.0165    1.3620    0.0095 C.ar      1 <0>        -0.1463
      2 C2          1.1697    2.0834    0.0021 C.ar      1 <0>        -0.0983
      3 C3          2.3856    1.4362   -0.0134 C.ar      1 <0>        -0.1287
      4 C4          2.4281    0.0456   -0.0212 C.ar      1 <0>         0.0982
      5 C5          1.2234   -0.6807   -0.0132 C.ar      1 <0>        -0.1091
      6 C6          0.0021   -0.0041    0.0020 C.ar      1 <0>        -0.0707
      7 C7          1.6036   -2.0953   -0.0245 C.2       1 <0>        -0.1999
      8 C8          2.9451   -2.1410   -0.0380 C.2       1 <0>         0.0515
      9 N1          3.4551   -0.8713   -0.0363 N.pl3     1 <0>        -0.4820
     10 C9          4.8815   -0.5372   -0.0482 C.3       1 <0>         0.1005
     11 C10         5.3632   -0.3066    1.3856 C.3       1 <0>         0.1245
     12 N2          6.7896    0.0275    1.3737 N.pl3     1 <0>        -0.6999
     13 C11         7.4511    0.2803    2.5629 C.ar      1 <0>         0.5845
     14 N3          6.7788    0.2102    3.7030 N.ar      1 <0>        -0.5774
     15 C12         7.3745    0.4446    4.8642 C.ar      1 <0>         0.2021
     16 C13         8.7158    0.7665    4.8832 C.ar      1 <0>        -0.2826
     17 C14         9.4039    0.8340    3.6625 C.ar      1 <0>         0.3081
     18 N4          8.7396    0.5805    2.5324 N.ar      1 <0>        -0.5820
     19 C15        10.8371    1.1742    3.6286 C.2       1 <0>        -0.1371
     20 C16        11.5105    1.2382    2.4075 C.2       1 <0>         0.2421
     21 N5         12.8240    1.5276    2.1683 N.pl3     1 <0>        -0.6288
     22 C17        13.3090    1.5418    0.8731 C.ar      1 <0>         0.1191
     23 C18        14.6221    1.8178    0.4540 C.ar      1 <0>        -0.1204
     24 C19        14.9571    1.7948   -0.8784 C.ar      1 <0>        -0.0797
     25 C20        14.0165    1.4996   -1.8509 C.ar      1 <0>        -0.1187
     26 C21        12.7158    1.2233   -1.4681 C.ar      1 <0>        -0.0395
     27 C22        12.3799    1.2465   -0.1352 C.ar      1 <0>        -0.1880
     28 S1         10.8753    0.9548    0.7632 S.3       1 <0>         0.1818
     29 C23        11.5392    1.4391    4.8482 C.1       1 <0>         0.2716
     30 N6         12.0962    1.6493    5.8157 N.1       1 <0>        -0.4240
     31 H1         -0.9613    1.8849    0.0259 H         1 <0>         0.1221
     32 H2          1.1388    3.1630    0.0081 H         1 <0>         0.1243
     33 H3          3.3028    2.0064   -0.0198 H         1 <0>         0.1170
     34 H4         -0.9246   -0.5587    0.0082 H         1 <0>         0.1219
     35 H5          0.9320   -2.9411   -0.0220 H         1 <0>         0.1476
     36 H6          3.5346   -3.0459   -0.0490 H         1 <0>         0.1685
     37 H7          5.4433   -1.3588   -0.4925 H         1 <0>         0.0976
     38 H8          5.0376    0.3686   -0.6341 H         1 <0>         0.0921
     39 H9          4.8013    0.5150    1.8299 H         1 <0>         0.0746
     40 H10         5.2071   -1.2123    1.9715 H         1 <0>         0.0751
     41 H11         7.2704    0.0715    0.5324 H         1 <0>         0.4134
     42 H12         6.8150    0.3845    5.7860 H         1 <0>         0.1688
     43 H13         9.2241    0.9623    5.8158 H         1 <0>         0.1395
     44 H14        13.4184    1.7242    2.9092 H         1 <0>         0.4166
     45 H15        15.3779    2.0514    1.1893 H         1 <0>         0.1311
     46 H16        15.9734    2.0114   -1.1729 H         1 <0>         0.1376
     47 H17        14.2944    1.4857   -2.8944 H         1 <0>         0.1414
     48 H18        11.9685    0.9906   -2.2123 H         1 <0>         0.1399
@<TRIPOS>BOND
     1    1    6 ar
     2    1    2 ar
     3    1   31 1
     4    2    3 ar
     5    2   32 1
     6    3    4 ar
     7    3   33 1
     8    4    9 1
     9    4    5 ar
    10    5    6 ar
    11    5    7 1
    12    6   34 1
    13    7    8 2
    14    7   35 1
    15    8    9 1
    16    8   36 1
    17    9   10 1
    18   10   11 1
    19   10   37 1
    20   10   38 1
    21   11   12 1
    22   11   39 1
    23   11   40 1
    24   12   13 1
    25   12   41 1
    26   13   18 ar
    27   13   14 ar
    28   14   15 ar
    29   15   16 ar
    30   15   42 1
    31   16   17 ar
    32   16   43 1
    33   17   18 ar
    34   17   19 1
    35   19   20 2
    36   19   29 1
    37   20   28 1
    38   20   21 1
    39   21   22 1
    40   21   44 1
    41   22   27 ar
    42   22   23 ar
    43   23   24 ar
    44   23   45 1
    45   24   25 ar
    46   24   46 1
    47   25   26 ar
    48   25   47 1
    49   26   27 ar
    50   26   48 1
    51   27   28 1
    52   29   30 3
@<TRIPOS>MOLECULE
CHEMBL1090090
   41    43     0     0     0
SMALL
USER_CHARGES

@<TRIPOS>ATOM
      1 C1         -0.4515    0.6754    0.2601 C.ar      1 <0>        -0.0384
      2 C2          0.6760    0.9916   -0.4750 C.ar      1 <0>        -0.1566
      3 C3          1.7918    0.1756   -0.4188 C.ar      1 <0>         0.1477
      4 C4          1.7785   -0.9629    0.3780 C.ar      1 <0>         0.0226
      5 C5          0.6435   -1.2771    1.1157 C.ar      1 <0>         0.1464
      6 C6         -0.4686   -0.4565    1.0540 C.ar      1 <0>        -0.1570
      7 F1          0.6257   -2.3831    1.8915 F         1 <0>        -0.1144
      8 N1          2.9080   -1.7932    0.4373 N.am      1 <0>        -0.5048
      9 C7          3.8916   -1.5617    1.3921 C.ar      1 <0>         0.4090
     10 C8          3.6937   -0.5728    2.3546 C.ar      1 <0>        -0.2052
     11 C9          4.6693   -0.3428    3.3021 C.ar      1 <0>        -0.0088
     12 C10         5.8358   -1.1196    3.2623 C.ar      1 <0>        -0.2080
     13 C11         5.9664   -2.1000    2.2617 C.ar      1 <0>         0.2617
     14 N2          4.9981   -2.2874    1.3759 N.ar      1 <0>        -0.4541
     15 C12         7.1899   -2.9309    2.2011 C.ar      1 <0>        -0.0596
     16 C13         7.2993   -4.0749    2.9922 C.ar      1 <0>        -0.0259
     17 C14         8.4405   -4.8460    2.9321 C.ar      1 <0>        -0.1576
     18 C15         9.4800   -4.4874    2.0872 C.ar      1 <0>         0.1374
     19 C16         9.3790   -3.3530    1.2992 C.ar      1 <0>        -0.1885
     20 C17         8.2371   -2.5757    1.3471 C.ar      1 <0>         0.1638
     21 F2          8.1362   -1.4722    0.5743 F         1 <0>        -0.1281
     22 F3         10.5957   -5.2473    2.0329 F         1 <0>        -0.1310
     23 C18         6.9076   -0.9123    4.2518 C.2       1 <0>         0.5688
     24 O1          7.9558   -1.5203    4.1492 O.2       1 <0>        -0.5180
     25 N3          6.7262   -0.0488    5.2707 N.am      1 <0>        -0.8501
     26 C19         3.0394   -2.8152   -0.4315 C.2       1 <0>         0.7040
     27 O2          4.0180   -3.5346   -0.3802 O.2       1 <0>        -0.5065
     28 N4          2.0858   -3.0396   -1.3572 N.am      1 <0>        -0.8545
     29 F4          2.8928    0.4848   -1.1381 F         1 <0>        -0.1138
     30 H1         -1.3196    1.3165    0.2175 H         1 <0>         0.1561
     31 H2          0.6857    1.8765   -1.0940 H         1 <0>         0.1561
     32 H3         -1.3511   -0.7001    1.6270 H         1 <0>         0.1561
     33 H4          2.7838    0.0089    2.3580 H         1 <0>         0.1421
     34 H5          4.5379    0.4183    4.0570 H         1 <0>         0.1497
     35 H6          6.4911   -4.3559    3.6512 H         1 <0>         0.1382
     36 H7          8.5253   -5.7313    3.5447 H         1 <0>         0.1450
     37 H8         10.1916   -3.0779    0.6432 H         1 <0>         0.1500
     38 H9          5.8902    0.4361    5.3525 H         1 <0>         0.3988
     39 H10         7.4318    0.0877    5.9221 H         1 <0>         0.4086
     40 H11         1.3050   -2.4656   -1.3981 H         1 <0>         0.3955
     41 H12         2.1804   -3.7751   -1.9825 H         1 <0>         0.4233
@<TRIPOS>BOND
     1    1    6 ar
     2    1    2 ar
     3    1   30 1
     4    2    3 ar
     5    2   31 1
     6    3    4 ar
     7    3   29 1
     8    4    5 ar
     9    4    8 1
    10    5    6 ar
    11    5    7 1
    12    6   32 1
    13    8    9 1
    14    8   26 am
    15    9   14 ar
    16    9   10 ar
    17   10   11 ar
    18   10   33 1
    19   11   12 ar
    20   11   34 1
    21   12   13 ar
    22   12   23 1
    23   13   14 ar
    24   13   15 1
    25   15   20 ar
    26   15   16 ar
    27   16   17 ar
    28   16   35 1
    29   17   18 ar
    30   17   36 1
    31   18   19 ar
    32   18   22 1
    33   19   20 ar
    34   19   37 1
    35   20   21 1
    36   23   24 2
    37   23   25 am
    38   25   38 1
    39   25   39 1
    40   26   27 2
    41   26   28 am
    42   28   40 1
    43   28   41 1
@<TRIPOS>MOLECULE
CHEMBL1090089
   49    51     0     0     0
SMALL
USER_CHARGES

@<TRIPOS>ATOM
      1 C1          0.0061    1.4638   -0.3326 C.3       1 <0>         0.0690
      2 N1          0.0190    0.0075   -0.1738 N.am      1 <0>        -0.5028
      3 C2         -1.1667   -0.6667   -0.0299 C.ar      1 <0>         0.4666
      4 C3         -1.1578   -2.0702    0.1228 C.ar      1 <0>        -0.2883
      5 C4          0.1185   -2.7800    0.1246 C.2       1 <0>         0.0253
      6 C5          1.2608   -2.0539   -0.0224 C.2       1 <0>        -0.0427
      7 C6          1.1930   -0.6486   -0.1770 C.2       1 <0>         0.5308
      8 O1          2.2258   -0.0160   -0.3120 O.2       1 <0>        -0.5000
      9 O2          2.4679   -2.6800   -0.0252 O.3       1 <0>        -0.2143
     10 C7          3.3138   -2.4399    1.0118 C.ar      1 <0>         0.0833
     11 C8          2.8933   -1.6721    2.0874 C.ar      1 <0>        -0.1284
     12 C9          3.7539   -1.4288    3.1406 C.ar      1 <0>        -0.1229
     13 C10         5.0363   -1.9506    3.1236 C.ar      1 <0>         0.1017
     14 C11         5.4595   -2.7171    2.0511 C.ar      1 <0>        -0.1543
     15 C12         4.5987   -2.9680    0.9978 C.ar      1 <0>         0.1134
     16 F1          5.0091   -3.7209   -0.0463 F         1 <0>        -0.1196
     17 F2          5.8759   -1.7112    4.1546 F         1 <0>        -0.1287
     18 C13        -2.3773   -2.7400    0.2678 C.ar      1 <0>         0.2687
     19 N2         -3.4912   -2.0290    0.2558 N.ar      1 <0>        -0.5760
     20 C14        -3.4630   -0.7093    0.1100 C.ar      1 <0>         0.6152
     21 N3         -2.3328   -0.0330   -0.0304 N.ar      1 <0>        -0.5974
     22 N4         -4.6577   -0.0155    0.1047 N.pl3     1 <0>        -0.6797
     23 C15        -5.9240   -0.7362    0.2579 C.3       1 <0>         0.1640
     24 C16        -6.9822    0.2083    0.8314 C.3       1 <0>        -0.1296
     25 C17        -6.5799    0.6254    2.2474 C.3       1 <0>         0.0760
     26 O3         -7.5682    1.5076    2.7831 O.3       1 <0>        -0.5738
     27 C18        -6.3860   -1.2514   -1.1066 C.3       1 <0>        -0.1325
     28 C19        -5.3890   -2.2904   -1.6237 C.3       1 <0>         0.0859
     29 O4         -5.8205   -2.7716   -2.8982 O.3       1 <0>        -0.5799
     30 H1          1.0285    1.8269   -0.4377 H         1 <0>         0.1019
     31 H2         -0.5663    1.7273   -1.2220 H         1 <0>         0.0820
     32 H3         -0.4534    1.9207    0.5438 H         1 <0>         0.0818
     33 H4          0.1553   -3.8532    0.2400 H         1 <0>         0.1637
     34 H5          1.8934   -1.2643    2.1017 H         1 <0>         0.1366
     35 H6          3.4261   -0.8305    3.9779 H         1 <0>         0.1473
     36 H7          6.4602   -3.1232    2.0391 H         1 <0>         0.1596
     37 H8         -2.4078   -3.8130    0.3864 H         1 <0>         0.1882
     38 H9         -4.6582    0.9487   -0.0006 H         1 <0>         0.4183
     39 H10        -5.7830   -1.5783    0.9356 H         1 <0>         0.1038
     40 H11        -7.0596    1.0935    0.2001 H         1 <0>         0.0806
     41 H12        -7.9453   -0.3011    0.8626 H         1 <0>         0.0952
     42 H13        -6.5025   -0.2597    2.8788 H         1 <0>         0.0480
     43 H14        -5.6167    1.1349    2.2163 H         1 <0>         0.0455
     44 H15        -7.3779    1.8131    3.6806 H         1 <0>         0.3838
     45 H16        -7.3700   -1.7098   -1.0077 H         1 <0>         0.0863
     46 H17        -6.4415   -0.4199   -1.8092 H         1 <0>         0.0732
     47 H18        -4.4050   -1.8320   -1.7226 H         1 <0>         0.0364
     48 H19        -5.3335   -3.1219   -0.9212 H         1 <0>         0.0590
     49 H20        -5.2344   -3.4351   -3.2871 H         1 <0>         0.3800
@<TRIPOS>BOND
     1    1    2 1
     2    1   30 1
     3    1   31 1
     4    1   32 1
     5    2    7 am
     6    2    3 1
     7    3   21 ar
     8    3    4 ar
     9    4    5 1
    10    4   18 ar
    11    5    6 2
    12    5   33 1
    13    6    7 1
    14    6    9 1
    15    7    8 2
    16    9   10 1
    17   10   15 ar
    18   10   11 ar
    19   11   12 ar
    20   11   34 1
    21   12   13 ar
    22   12   35 1
    23   13   14 ar
    24   13   17 1
    25   14   15 ar
    26   14   36 1
    27   15   16 1
    28   18   19 ar
    29   18   37 1
    30   19   20 ar
    31   20   21 ar
    32   20   22 1
    33   22   23 1
    34   22   38 1
    35   23   24 1
    36   23   27 1
    37   23   39 1
    38   24   25 1
    39   24   40 1
    40   24   41 1
    41   25   26 1
    42   25   42 1
    43   25   43 1
    44   26   44 1
    45   27   28 1
    46   27   45 1
    47   27   46 1
    48   28   29 1
    49   28   47 1
    50   28   48 1
    51   29   49 1
@<TRIPOS>MOLECULE
CHEMBL371113
   45    48     0     0     0
SMALL
USER_CHARGES

@<TRIPOS>ATOM
      1 C1         -0.0178    1.4608    0.0101 C.3       1 <0>         0.0514
      2 N1          0.0021   -0.0041    0.0020 N.pl3     1 <0>        -0.4061
      3 C2          0.0085   -0.7994   -1.0894 C.cat     1 <0>         0.2919
      4 N2          0.0269   -2.0446   -0.6995 N.pl3     1 <0>        -0.4738
      5 C3          0.0330   -2.0884    0.6410 C.2       1 <0>         0.0117
      6 C4          0.0236   -0.8221    1.0993 C.2       1 <0>         0.0564
      7 C5          0.0318   -0.3890    2.5427 C.3       1 <0>        -0.0755
      8 C6          1.4733   -0.3437    3.0534 C.3       1 <0>         0.1465
      9 N3          1.4813    0.0774    4.4565 N.pl3     1 <0>        -0.7087
     10 C7          2.6806    0.1922    5.1379 C.ar      1 <0>         0.5793
     11 N4          3.8122   -0.0778    4.5027 N.ar      1 <0>        -0.5838
     12 C8          4.9825    0.0200    5.1182 C.ar      1 <0>         0.2034
     13 C9          5.0203    0.4094    6.4411 C.ar      1 <0>        -0.2743
     14 C10         3.8084    0.6892    7.0899 C.ar      1 <0>         0.3182
     15 N5          2.6680    0.5738    6.4049 N.ar      1 <0>        -0.6050
     16 C11         3.7944    1.1083    8.5024 C.2       1 <0>        -0.1431
     17 C12         2.5818    1.3839    9.1367 C.2       1 <0>         0.2624
     18 N6          1.3155    1.3192    8.6282 N.pl3     1 <0>        -0.6073
     19 C13         0.2290    1.6346    9.4237 C.ar      1 <0>         0.1200
     20 C14        -1.1293    1.6210    9.0618 C.ar      1 <0>        -0.1199
     21 C15        -2.1044    1.9626    9.9677 C.ar      1 <0>        -0.0764
     22 C16        -1.7842    2.3303   11.2637 C.ar      1 <0>        -0.1153
     23 C17        -0.4553    2.3525   11.6488 C.ar      1 <0>        -0.0369
     24 C18         0.5208    2.0112   10.7429 C.ar      1 <0>        -0.1564
     25 S1          2.2924    1.9026   10.8203 S.3       1 <0>         0.0884
     26 C19         5.0247    1.2329    9.2245 C.1       1 <0>         0.2702
     27 N7          6.0007    1.3318    9.7973 N.1       1 <0>        -0.4071
     28 H1          1.0048    1.8381    0.0023 H         1 <0>         0.1132
     29 H2         -0.5450    1.8219   -0.8730 H         1 <0>         0.1186
     30 H3         -0.5280    1.8123    0.9069 H         1 <0>         0.1156
     31 H4         -0.0008   -0.4609   -2.1149 H         1 <0>         0.2628
     32 H5          0.0470   -2.9825    1.2468 H         1 <0>         0.2245
     33 H6         -0.4150    0.6016    2.6273 H         1 <0>         0.1017
     34 H7         -0.5425   -1.0987    3.1382 H         1 <0>         0.1191
     35 H8          1.9201   -1.3343    2.9687 H         1 <0>         0.0777
     36 H9          2.0476    0.3660    2.4578 H         1 <0>         0.0704
     37 H10         0.6460    0.2757    4.9081 H         1 <0>         0.4126
     38 H11         5.8972   -0.2032    4.5891 H         1 <0>         0.1720
     39 H12         5.9607    0.4964    6.9651 H         1 <0>         0.1458
     40 H13         1.1780    1.0516    7.7060 H         1 <0>         0.4303
     41 H14        -1.4102    1.3385    8.0580 H         1 <0>         0.1308
     42 H15        -3.1403    1.9443    9.6629 H         1 <0>         0.1396
     43 H16        -2.5614    2.5967   11.9647 H         1 <0>         0.1451
     44 H17        -0.1864    2.6364   12.6556 H         1 <0>         0.1433
     45 H18         0.0348   -2.8168   -1.2866 H         1 <0>         0.4669
@<TRIPOS>BOND
     1    1    2 1
     2    1   28 1
     3    1   29 1
     4    1   30 1
     5    2    6 1
     6    2    3 1
     7    3    4 2
     8    3   31 1
     9    4    5 1
    10    4   45 1
    11    5    6 2
    12    5   32 1
    13    6    7 1
    14    7    8 1
    15    7   33 1
    16    7   34 1
    17    8    9 1
    18    8   35 1
    19    8   36 1
    20    9   10 1
    21    9   37 1
    22   10   15 ar
    23   10   11 ar
    24   11   12 ar
    25   12   13 ar
    26   12   38 1
    27   13   14 ar
    28   13   39 1
    29   14   15 ar
    30   14   16 1
    31   16   17 2
    32   16   26 1
    33   17   25 1
    34   17   18 1
    35   18   19 1
    36   18   40 1
    37   19   24 ar
    38   19   20 ar
    39   20   21 ar
    40   20   41 1
    41   21   22 ar
    42   21   42 1
    43   22   23 ar
    44   22   43 1
    45   23   24 ar
    46   23   44 1
    47   24   25 1
    48   26   27 3
@<TRIPOS>MOLECULE
CHEMBL371113__1
   44    47     0     0     0
SMALL
USER_CHARGES

@<TRIPOS>ATOM
      1 C1         -0.0178    1.4608    0.0101 C.3       1 <0>         0.0690
      2 N1          0.0021   -0.0041    0.0020 N.pl3     1 <0>        -0.4584
      3 C2          0.0085   -0.7994   -1.0894 C.2       1 <0>         0.1845
      4 N2          0.0269   -2.0446   -0.6995 N.2       1 <0>        -0.4927
      5 C3          0.0330   -2.0884    0.6410 C.2       1 <0>        -0.0149
      6 C4          0.0236   -0.8221    1.0993 C.2       1 <0>        -0.0271
      7 C5          0.0318   -0.3890    2.5427 C.3       1 <0>        -0.0539
      8 C6          1.4733   -0.3437    3.0534 C.3       1 <0>         0.1462
      9 N3          1.4813    0.0774    4.4565 N.pl3     1 <0>        -0.7010
     10 C7          2.6806    0.1922    5.1379 C.ar      1 <0>         0.5831
     11 N4          3.8122   -0.0778    4.5027 N.ar      1 <0>        -0.5779
     12 C8          4.9825    0.0200    5.1182 C.ar      1 <0>         0.2019
     13 C9          5.0203    0.4094    6.4411 C.ar      1 <0>        -0.2848
     14 C10         3.8084    0.6892    7.0899 C.ar      1 <0>         0.3075
     15 N5          2.6680    0.5738    6.4049 N.ar      1 <0>        -0.5833
     16 C11         3.7944    1.1083    8.5024 C.2       1 <0>        -0.1366
     17 C12         2.5818    1.3839    9.1367 C.2       1 <0>         0.2412
     18 N6          2.3607    1.7865   10.4233 N.pl3     1 <0>        -0.6291
     19 C13         1.0714    2.0112   10.8705 C.ar      1 <0>         0.1192
     20 C14         0.6702    2.4246   12.1528 C.ar      1 <0>        -0.1207
     21 C15        -0.6585    2.6066   12.4521 C.ar      1 <0>        -0.0799
     22 C16        -1.6447    2.3902   11.5044 C.ar      1 <0>        -0.1191
     23 C17        -1.2797    1.9830   10.2332 C.ar      1 <0>        -0.0395
     24 C18         0.0494    1.8004    9.9333 C.ar      1 <0>        -0.1883
     25 S1          0.9274    1.3069    8.4699 S.3       1 <0>         0.1830
     26 C19         5.0247    1.2329    9.2245 C.1       1 <0>         0.2719
     27 N7          6.0007    1.3318    9.7973 N.1       1 <0>        -0.4248
     28 H1          1.0048    1.8381    0.0023 H         1 <0>         0.0789
     29 H2         -0.5450    1.8219   -0.8730 H         1 <0>         0.0897
     30 H3         -0.5280    1.8123    0.9069 H         1 <0>         0.0851
     31 H4         -0.0008   -0.4609   -2.1149 H         1 <0>         0.2058
     32 H5          0.0470   -2.9825    1.2468 H         1 <0>         0.1697
     33 H6         -0.4150    0.6016    2.6273 H         1 <0>         0.0760
     34 H7         -0.5425   -1.0987    3.1382 H         1 <0>         0.0949
     35 H8          1.9201   -1.3343    2.9687 H         1 <0>         0.0744
     36 H9          2.0476    0.3660    2.4578 H         1 <0>         0.0653
     37 H10         0.6460    0.2757    4.9081 H         1 <0>         0.4125
     38 H11         5.8972   -0.2032    4.5891 H         1 <0>         0.1679
     39 H12         5.9607    0.4964    6.9651 H         1 <0>         0.1385
     40 H13         3.1105    1.9150   11.0252 H         1 <0>         0.4164
     41 H14         1.4165    2.6014   12.9132 H         1 <0>         0.1308
     42 H15        -0.9390    2.9241   13.4455 H         1 <0>         0.1374
     43 H16        -2.6851    2.5369   11.7543 H         1 <0>         0.1412
     44 H17        -2.0349    1.8097    9.4809 H         1 <0>         0.1399
@<TRIPOS>BOND
     1    1    2 1
     2    1   28 1
     3    1   29 1
     4    1   30 1
     5    2    6 1
     6    2    3 1
     7    3    4 2
     8    3   31 1
     9    4    5 1
    10    5    6 2
    11    5   32 1
    12    6    7 1
    13    7    8 1
    14    7   33 1
    15    7   34 1
    16    8    9 1
    17    8   35 1
    18    8   36 1
    19    9   10 1
    20    9   37 1
    21   10   15 ar
    22   10   11 ar
    23   11   12 ar
    24   12   13 ar
    25   12   38 1
    26   13   14 ar
    27   13   39 1
    28   14   15 ar
    29   14   16 1
    30   16   17 2
    31   16   26 1
    32   17   25 1
    33   17   18 1
    34   18   19 1
    35   18   40 1
    36   19   24 ar
    37   19   20 ar
    38   20   21 ar
    39   20   41 1
    40   21   22 ar
    41   21   42 1
    42   22   23 ar
    43   22   43 1
    44   23   24 ar
    45   23   44 1
    46   24   25 1
    47   26   27 3
@<TRIPOS>MOLECULE
CHEMBL371113__2
   44    47     0     0     0
SMALL
USER_CHARGES

@<TRIPOS>ATOM
      1 C1         -0.0178    1.4608    0.0101 C.3       1 <0>         0.0690
      2 N1          0.0021   -0.0041    0.0020 N.pl3     1 <0>        -0.4584
      3 C2          0.0085   -0.7994   -1.0894 C.2       1 <0>         0.1858
      4 N2          0.0269   -2.0446   -0.6995 N.2       1 <0>        -0.4923
      5 C3          0.0330   -2.0884    0.6410 C.2       1 <0>        -0.0137
      6 C4          0.0236   -0.8221    1.0993 C.2       1 <0>        -0.0289
      7 C5          0.0318   -0.3890    2.5427 C.3       1 <0>        -0.0532
      8 C6          1.4733   -0.3437    3.0534 C.3       1 <0>         0.1458
      9 N3          1.4813    0.0774    4.4565 N.pl3     1 <0>        -0.7028
     10 C7          2.6806    0.1922    5.1379 C.ar      1 <0>         0.5831
     11 N4          3.8122   -0.0778    4.5027 N.ar      1 <0>        -0.5768
     12 C8          4.9825    0.0200    5.1182 C.ar      1 <0>         0.2052
     13 C9          5.0203    0.4094    6.4411 C.ar      1 <0>        -0.2834
     14 C10         3.8084    0.6892    7.0899 C.ar      1 <0>         0.3120
     15 N5          2.6680    0.5738    6.4049 N.ar      1 <0>        -0.6080
     16 C11         3.7944    1.1083    8.5024 C.2       1 <0>        -0.1379
     17 C12         2.5818    1.3839    9.1367 C.2       1 <0>         0.2607
     18 N6          1.3155    1.3192    8.6282 N.pl3     1 <0>        -0.6086
     19 C13         0.2290    1.6346    9.4237 C.ar      1 <0>         0.1249
     20 C14        -1.1293    1.6210    9.0618 C.ar      1 <0>        -0.1199
     21 C15        -2.1044    1.9626    9.9677 C.ar      1 <0>        -0.0764
     22 C16        -1.7842    2.3303   11.2637 C.ar      1 <0>        -0.1193
     23 C17        -0.4553    2.3525   11.6488 C.ar      1 <0>        -0.0387
     24 C18         0.5208    2.0112   10.7429 C.ar      1 <0>        -0.1572
     25 S1          2.2924    1.9026   10.8203 S.3       1 <0>         0.0763
     26 C19         5.0247    1.2329    9.2245 C.1       1 <0>         0.2758
     27 N7          6.0007    1.3318    9.7973 N.1       1 <0>        -0.4146
     28 H1          1.0048    1.8381    0.0023 H         1 <0>         0.0790
     29 H2         -0.5450    1.8219   -0.8730 H         1 <0>         0.0903
     30 H3         -0.5280    1.8123    0.9069 H         1 <0>         0.0844
     31 H4         -0.0008   -0.4609   -2.1149 H         1 <0>         0.2063
     32 H5          0.0470   -2.9825    1.2468 H         1 <0>         0.1696
     33 H6         -0.4150    0.6016    2.6273 H         1 <0>         0.0755
     34 H7         -0.5425   -1.0987    3.1382 H         1 <0>         0.0942
     35 H8          1.9201   -1.3343    2.9687 H         1 <0>         0.0755
     36 H9          2.0476    0.3660    2.4578 H         1 <0>         0.0664
     37 H10         0.6460    0.2757    4.9081 H         1 <0>         0.4096
     38 H11         5.8972   -0.2032    4.5891 H         1 <0>         0.1700
     39 H12         5.9607    0.4964    6.9651 H         1 <0>         0.1421
     40 H13         1.1780    1.0516    7.7060 H         1 <0>         0.4326
     41 H14        -1.4102    1.3385    8.0580 H         1 <0>         0.1330
     42 H15        -3.1403    1.9443    9.6629 H         1 <0>         0.1390
     43 H16        -2.5614    2.5967   11.9647 H         1 <0>         0.1430
     44 H17        -0.1864    2.6364   12.6556 H         1 <0>         0.1410
@<TRIPOS>BOND
     1    1    2 1
     2    1   28 1
     3    1   29 1
     4    1   30 1
     5    2    6 1
     6    2    3 1
     7    3    4 2
     8    3   31 1
     9    4    5 1
    10    5    6 2
    11    5   32 1
    12    6    7 1
    13    7    8 1
    14    7   33 1
    15    7   34 1
    16    8    9 1
    17    8   35 1
    18    8   36 1
    19    9   10 1
    20    9   37 1
    21   10   15 ar
    22   10   11 ar
    23   11   12 ar
    24   12   13 ar
    25   12   38 1
    26   13   14 ar
    27   13   39 1
    28   14   15 ar
    29   14   16 1
    30   16   17 2
    31   16   26 1
    32   17   25 1
    33   17   18 1
    34   18   19 1
    35   18   40 1
    36   19   24 ar
    37   19   20 ar
    38   20   21 ar
    39   20   41 1
    40   21   22 ar
    41   21   42 1
    42   22   23 ar
    43   22   43 1
    44   23   24 ar
    45   23   44 1
    46   24   25 1
    47   26   27 3
@<TRIPOS>MOLECULE
CHEMBL371113__3
   45    48     0     0     0
SMALL
USER_CHARGES

@<TRIPOS>ATOM
      1 C1         -0.0178    1.4608    0.0101 C.3       1 <0>         0.0514
      2 N1          0.0021   -0.0041    0.0020 N.pl3     1 <0>        -0.4060
      3 C2          0.0085   -0.7994   -1.0894 C.cat     1 <0>         0.2906
      4 N2          0.0269   -2.0446   -0.6995 N.pl3     1 <0>        -0.4739
      5 C3          0.0330   -2.0884    0.6410 C.2       1 <0>         0.0107
      6 C4          0.0236   -0.8221    1.0993 C.2       1 <0>         0.0579
      7 C5          0.0318   -0.3890    2.5427 C.3       1 <0>        -0.0762
      8 C6          1.4733   -0.3437    3.0534 C.3       1 <0>         0.1469
      9 N3          1.4813    0.0774    4.4565 N.pl3     1 <0>        -0.7070
     10 C7          2.6806    0.1922    5.1379 C.ar      1 <0>         0.5793
     11 N4          3.8122   -0.0778    4.5027 N.ar      1 <0>        -0.5847
     12 C8          4.9825    0.0200    5.1182 C.ar      1 <0>         0.2001
     13 C9          5.0203    0.4094    6.4411 C.ar      1 <0>        -0.2755
     14 C10         3.8084    0.6892    7.0899 C.ar      1 <0>         0.3139
     15 N5          2.6680    0.5738    6.4049 N.ar      1 <0>        -0.5799
     16 C11         3.7944    1.1083    8.5024 C.2       1 <0>        -0.1428
     17 C12         2.5818    1.3839    9.1367 C.2       1 <0>         0.2477
     18 N6          2.3607    1.7865   10.4233 N.pl3     1 <0>        -0.6264
     19 C13         1.0714    2.0112   10.8705 C.ar      1 <0>         0.1170
     20 C14         0.6702    2.4246   12.1528 C.ar      1 <0>        -0.1175
     21 C15        -0.6585    2.6066   12.4521 C.ar      1 <0>        -0.0773
     22 C16        -1.6447    2.3902   11.5044 C.ar      1 <0>        -0.1157
     23 C17        -1.2797    1.9830   10.2332 C.ar      1 <0>        -0.0408
     24 C18         0.0494    1.8004    9.9333 C.ar      1 <0>        -0.1870
     25 S1          0.9274    1.3069    8.4699 S.3       1 <0>         0.1756
     26 C19         5.0247    1.2329    9.2245 C.1       1 <0>         0.2663
     27 N7          6.0007    1.3318    9.7973 N.1       1 <0>        -0.4171
     28 H1          1.0048    1.8381    0.0023 H         1 <0>         0.1131
     29 H2         -0.5450    1.8219   -0.8730 H         1 <0>         0.1181
     30 H3         -0.5280    1.8123    0.9069 H         1 <0>         0.1163
     31 H4         -0.0008   -0.4609   -2.1149 H         1 <0>         0.2622
     32 H5          0.0470   -2.9825    1.2468 H         1 <0>         0.2245
     33 H6         -0.4150    0.6016    2.6273 H         1 <0>         0.1023
     34 H7         -0.5425   -1.0987    3.1382 H         1 <0>         0.1198
     35 H8          1.9201   -1.3343    2.9687 H         1 <0>         0.0766
     36 H9          2.0476    0.3660    2.4578 H         1 <0>         0.0693
     37 H10         0.6460    0.2757    4.9081 H         1 <0>         0.4156
     38 H11         5.8972   -0.2032    4.5891 H         1 <0>         0.1700
     39 H12         5.9607    0.4964    6.9651 H         1 <0>         0.1422
     40 H13         3.1105    1.9150   11.0252 H         1 <0>         0.4184
     41 H14         1.4165    2.6014   12.9132 H         1 <0>         0.1330
     42 H15        -0.9390    2.9241   13.4455 H         1 <0>         0.1399
     43 H16        -2.6851    2.5369   11.7543 H         1 <0>         0.1430
     44 H17        -2.0349    1.8097    9.4809 H         1 <0>         0.1396
     45 H18         0.0348   -2.8168   -1.2866 H         1 <0>         0.4665
@<TRIPOS>BOND
     1    1    2 1
     2    1   28 1
     3    1   29 1
     4    1   30 1
     5    2    6 1
     6    2    3 1
     7    3    4 2
     8    3   31 1
     9    4    5 1
    10    4   45 1
    11    5    6 2
    12    5   32 1
    13    6    7 1
    14    7    8 1
    15    7   33 1
    16    7   34 1
    17    8    9 1
    18    8   35 1
    19    8   36 1
    20    9   10 1
    21    9   37 1
    22   10   15 ar
    23   10   11 ar
    24   11   12 ar
    25   12   13 ar
    26   12   38 1
    27   13   14 ar
    28   13   39 1
    29   14   15 ar
    30   14   16 1
    31   16   17 2
    32   16   26 1
    33   17   25 1
    34   17   18 1
    35   18   19 1
    36   18   40 1
    37   19   24 ar
    38   19   20 ar
    39   20   21 ar
    40   20   41 1
    41   21   22 ar
    42   21   42 1
    43   22   23 ar
    44   22   43 1
    45   23   24 ar
    46   23   44 1
    47   24   25 1
    48   26   27 3
@<TRIPOS>MOLECULE
CHEMBL494072
   61    65     0     0     0
SMALL
USER_CHARGES

@<TRIPOS>ATOM
      1 C1         -0.0184    1.5028    0.0103 C.3       1 <0>        -0.1256
      2 C2          0.0021   -0.0041    0.0020 C.ar      1 <0>        -0.0426
      3 C3          0.0057   -0.6865   -1.1992 C.ar      1 <0>        -0.1243
      4 C4          0.0244   -2.0665   -1.2155 C.ar      1 <0>        -0.0800
      5 C5          0.0393   -2.7811   -0.0156 C.ar      1 <0>        -0.1401
      6 C6          0.0357   -2.0972    1.1986 C.ar      1 <0>        -0.0408
      7 C7          0.0230   -0.7059    1.2067 C.ar      1 <0>        -0.0532
      8 C8          0.0258    0.0296    2.4952 C.ar      1 <0>        -0.0745
      9 C9          0.9442    1.0714    2.7002 C.ar      1 <0>        -0.0507
     10 C10         0.9685    1.7618    3.8710 C.ar      1 <0>        -0.1209
     11 C11         0.0659    1.4351    4.8952 C.ar      1 <0>         0.2174
     12 C12        -0.8667    0.3834    4.6979 C.ar      1 <0>        -0.2138
     13 C13        -0.8806   -0.3130    3.4827 C.ar      1 <0>        -0.0366
     14 C14        -1.7607    0.0771    5.7416 C.ar      1 <0>         0.2447
     15 N1         -1.6924    0.7789    6.8533 N.ar      1 <0>        -0.5579
     16 C15        -0.8042    1.7595    7.0044 C.ar      1 <0>         0.5733
     17 N2          0.0573    2.0909    6.0623 N.ar      1 <0>        -0.5735
     18 N3         -0.7844    2.4588    8.1975 N.pl3     1 <0>        -0.6968
     19 C16        -1.7283    2.1151    9.2638 C.3       1 <0>         0.1400
     20 C17        -1.4964    3.0330   10.4657 C.3       1 <0>         0.0428
     21 N4         -2.4430    2.6883   11.5349 N.3       1 <0>        -0.5320
     22 C18        -3.8244    2.9911   11.1334 C.3       1 <0>         0.0117
     23 C19        -4.7802    2.5625   12.2499 C.3       1 <0>         0.0630
     24 O1         -4.4126    3.2218   13.4646 O.3       1 <0>        -0.3850
     25 C20        -3.0733    2.9485   13.8854 C.3       1 <0>         0.0630
     26 C21        -2.1002    3.3811   12.7855 C.3       1 <0>         0.0182
     27 C22         0.0583   -4.2595   -0.0336 C.2       1 <0>         0.5645
     28 O2          0.0712   -4.8798    1.0116 O.2       1 <0>        -0.5318
     29 N5          0.0613   -4.9191   -1.2088 N.am      1 <0>        -0.6994
     30 C23         0.0801   -6.3839   -1.2266 C.3       1 <0>         0.0773
     31 C24         1.0206   -7.0663   -2.2219 C.3       1 <0>        -0.1921
     32 C25        -0.4903   -7.0828   -2.4623 C.3       1 <0>        -0.1879
     33 H1          1.0042    1.8801    0.0026 H         1 <0>         0.0782
     34 H2         -0.5455    1.8639   -0.8728 H         1 <0>         0.0717
     35 H3         -0.5286    1.8543    0.9071 H         1 <0>         0.0748
     36 H4         -0.0065   -0.1378   -2.1294 H         1 <0>         0.1329
     37 H5          0.0271   -2.5946   -2.1576 H         1 <0>         0.1258
     38 H6          0.0472   -2.6448    2.1294 H         1 <0>         0.1395
     39 H7          1.6417    1.3278    1.9165 H         1 <0>         0.1341
     40 H8          1.6816    2.5604    4.0130 H         1 <0>         0.1394
     41 H9         -1.5889   -1.1119    3.3198 H         1 <0>         0.1367
     42 H10        -2.4864   -0.7154    5.6324 H         1 <0>         0.1789
     43 H11        -0.1454    3.1768    8.3282 H         1 <0>         0.4142
     44 H12        -2.7483    2.2422    8.9010 H         1 <0>         0.0686
     45 H13        -1.5759    1.0783    9.5637 H         1 <0>         0.0787
     46 H14        -0.4764    2.9058   10.8285 H         1 <0>         0.0845
     47 H15        -1.6488    4.0698   10.1658 H         1 <0>         0.0436
     48 H16        -3.9261    4.0622   10.9584 H         1 <0>         0.0453
     49 H17        -4.0652    2.4479   10.2196 H         1 <0>         0.0912
     50 H18        -5.8003    2.8370   11.9811 H         1 <0>         0.0999
     51 H19        -4.7176    1.4831   12.3882 H         1 <0>         0.0622
     52 H20        -2.8589    3.5022   14.7995 H         1 <0>         0.1002
     53 H21        -2.9610    1.8804   14.0713 H         1 <0>         0.0619
     54 H22        -1.0824    3.1225   13.0776 H         1 <0>         0.0888
     55 H23        -2.1744    4.4584   12.6369 H         1 <0>         0.0455
     56 H24         0.0509   -4.4241   -2.0429 H         1 <0>         0.4012
     57 H25        -0.0685   -6.8677   -0.2612 H         1 <0>         0.1400
     58 H26         1.6253   -6.4254   -2.8636 H         1 <0>         0.0976
     59 H27         1.4911   -7.9992   -1.9115 H         1 <0>         0.1045
     60 H28        -1.0139   -8.0266   -2.3100 H         1 <0>         0.1058
     61 H29        -0.8796   -6.4528   -3.2621 H         1 <0>         0.0979
@<TRIPOS>BOND
     1    1    2 1
     2    1   33 1
     3    1   34 1
     4    1   35 1
     5    2    7 ar
     6    2    3 ar
     7    3    4 ar
     8    3   36 1
     9    4    5 ar
    10    4   37 1
    11    5    6 ar
    12    5   27 1
    13    6    7 ar
    14    6   38 1
    15    7    8 1
    16    8   13 ar
    17    8    9 ar
    18    9   10 ar
    19    9   39 1
    20   10   11 ar
    21   10   40 1
    22   11   17 ar
    23   11   12 ar
    24   12   13 ar
    25   12   14 ar
    26   13   41 1
    27   14   15 ar
    28   14   42 1
    29   15   16 ar
    30   16   17 ar
    31   16   18 1
    32   18   19 1
    33   18   43 1
    34   19   20 1
    35   19   44 1
    36   19   45 1
    37   20   21 1
    38   20   46 1
    39   20   47 1
    40   21   26 1
    41   21   22 1
    42   22   23 1
    43   22   48 1
    44   22   49 1
    45   23   24 1
    46   23   50 1
    47   23   51 1
    48   24   25 1
    49   25   26 1
    50   25   52 1
    51   25   53 1
    52   26   54 1
    53   26   55 1
    54   27   28 2
    55   27   29 am
    56   29   30 1
    57   29   56 1
    58   30   32 1
    59   30   31 1
    60   30   57 1
    61   31   32 1
    62   31   58 1
    63   31   59 1
    64   32   60 1
    65   32   61 1
@<TRIPOS>MOLECULE
CHEMBL494072__1
   62    66     0     0     0
SMALL
USER_CHARGES

@<TRIPOS>ATOM
      1 C1         -0.0184    1.5028    0.0103 C.3       1 <0>        -0.1264
      2 C2          0.0021   -0.0041    0.0020 C.ar      1 <0>        -0.0405
      3 C3          0.0057   -0.6865   -1.1992 C.ar      1 <0>        -0.1229
      4 C4          0.0244   -2.0665   -1.2155 C.ar      1 <0>        -0.0746
      5 C5          0.0393   -2.7811   -0.0156 C.ar      1 <0>        -0.1384
      6 C6          0.0357   -2.0972    1.1986 C.ar      1 <0>        -0.0389
      7 C7          0.0230   -0.7059    1.2067 C.ar      1 <0>        -0.0650
      8 C8          0.0258    0.0296    2.4952 C.ar      1 <0>        -0.0532
      9 C9          0.9442    1.0714    2.7002 C.ar      1 <0>        -0.0466
     10 C10         0.9685    1.7618    3.8710 C.ar      1 <0>        -0.1174
     11 C11         0.0659    1.4351    4.8952 C.ar      1 <0>         0.2103
     12 C12        -0.8667    0.3834    4.6979 C.ar      1 <0>        -0.1996
     13 C13        -0.8806   -0.3130    3.4827 C.ar      1 <0>        -0.0463
     14 C14        -1.7607    0.0771    5.7416 C.ar      1 <0>         0.2475
     15 N1         -1.6924    0.7789    6.8533 N.ar      1 <0>        -0.5687
     16 C15        -0.8042    1.7595    7.0044 C.ar      1 <0>         0.5615
     17 N2          0.0573    2.0909    6.0623 N.ar      1 <0>        -0.5574
     18 N3         -0.7844    2.4588    8.1975 N.pl3     1 <0>        -0.7042
     19 C16        -1.7283    2.1151    9.2638 C.3       1 <0>         0.1190
     20 C17        -1.4964    3.0330   10.4657 C.3       1 <0>        -0.0229
     21 N4         -2.4430    2.6883   11.5349 N.4       1 <0>        -0.3804
     22 C18        -3.8130    2.9743   11.0874 C.3       1 <0>        -0.0511
     23 C19        -4.7973    2.6141   12.2030 C.3       1 <0>         0.0368
     24 O1         -4.4648    3.3528   13.3818 O.3       1 <0>        -0.3561
     25 C20        -3.1302    3.1260   13.8438 C.3       1 <0>         0.0360
     26 C21        -2.1429    3.4870   12.7312 C.3       1 <0>        -0.0426
     27 C22         0.0583   -4.2595   -0.0336 C.2       1 <0>         0.5641
     28 O2          0.0712   -4.8798    1.0116 O.2       1 <0>        -0.5333
     29 N5          0.0613   -4.9191   -1.2088 N.am      1 <0>        -0.6977
     30 C23         0.0801   -6.3839   -1.2266 C.3       1 <0>         0.0751
     31 C24         1.0206   -7.0663   -2.2219 C.3       1 <0>        -0.1909
     32 C25        -0.4903   -7.0828   -2.4623 C.3       1 <0>        -0.1868
     33 H1          1.0042    1.8801    0.0026 H         1 <0>         0.0795
     34 H2         -0.5455    1.8639   -0.8728 H         1 <0>         0.0745
     35 H3         -0.5286    1.8543    0.9071 H         1 <0>         0.0722
     36 H4         -0.0065   -0.1378   -2.1294 H         1 <0>         0.1355
     37 H5          0.0271   -2.5946   -2.1576 H         1 <0>         0.1285
     38 H6          0.0472   -2.6448    2.1294 H         1 <0>         0.1393
     39 H7          1.6417    1.3278    1.9165 H         1 <0>         0.1398
     40 H8          1.6816    2.5604    4.0130 H         1 <0>         0.1432
     41 H9         -1.5889   -1.1119    3.3198 H         1 <0>         0.1411
     42 H10        -2.4864   -0.7154    5.6324 H         1 <0>         0.1828
     43 H11        -0.1454    3.1768    8.3282 H         1 <0>         0.4204
     44 H12        -2.7483    2.2422    8.9010 H         1 <0>         0.0869
     45 H13        -1.5759    1.0783    9.5637 H         1 <0>         0.0875
     46 H14        -0.4764    2.9058   10.8285 H         1 <0>         0.1408
     47 H15        -1.6488    4.0698   10.1658 H         1 <0>         0.1388
     48 H16        -3.9043    4.0342   10.8501 H         1 <0>         0.1412
     49 H17        -4.0367    2.3822   10.2000 H         1 <0>         0.1458
     50 H18        -5.8105    2.8655   11.8896 H         1 <0>         0.1433
     51 H19        -4.7348    1.5463   12.4128 H         1 <0>         0.0830
     52 H20        -2.9370    3.7478   14.7179 H         1 <0>         0.1434
     53 H21        -3.0107    2.0757   14.1098 H         1 <0>         0.0826
     54 H22        -1.1267    3.2756   13.0641 H         1 <0>         0.1445
     55 H23        -2.2347    4.5468   12.4933 H         1 <0>         0.1407
     56 H24         0.0509   -4.4241   -2.0429 H         1 <0>         0.4018
     57 H25        -0.0685   -6.8677   -0.2612 H         1 <0>         0.1401
     58 H26         1.6253   -6.4254   -2.8636 H         1 <0>         0.0982
     59 H27         1.4911   -7.9992   -1.9115 H         1 <0>         0.1054
     60 H28        -1.0139   -8.0266   -2.3100 H         1 <0>         0.1067
     61 H29        -0.8796   -6.4528   -3.2621 H         1 <0>         0.0985
     62 H30        -2.3588    1.7073   11.7555 H         1 <0>         0.4260
@<TRIPOS>BOND
     1    1    2 1
     2    1   33 1
     3    1   34 1
     4    1   35 1
     5    2    7 ar
     6    2    3 ar
     7    3    4 ar
     8    3   36 1
     9    4    5 ar
    10    4   37 1
    11    5    6 ar
    12    5   27 1
    13    6    7 ar
    14    6   38 1
    15    7    8 1
    16    8   13 ar
    17    8    9 ar
    18    9   10 ar
    19    9   39 1
    20   10   11 ar
    21   10   40 1
    22   11   17 ar
    23   11   12 ar
    24   12   13 ar
    25   12   14 ar
    26   13   41 1
    27   14   15 ar
    28   14   42 1
    29   15   16 ar
    30   16   17 ar
    31   16   18 1
    32   18   19 1
    33   18   43 1
    34   19   20 1
    35   19   44 1
    36   19   45 1
    37   20   21 1
    38   20   46 1
    39   20   47 1
    40   21   26 1
    41   21   22 1
    42   21   62 1
    43   22   23 1
    44   22   48 1
    45   22   49 1
    46   23   24 1
    47   23   50 1
    48   23   51 1
    49   24   25 1
    50   25   26 1
    51   25   52 1
    52   25   53 1
    53   26   54 1
    54   26   55 1
    55   27   28 2
    56   27   29 am
    57   29   30 1
    58   29   56 1
    59   30   32 1
    60   30   31 1
    61   30   57 1
    62   31   32 1
    63   31   58 1
    64   31   59 1
    65   32   60 1
    66   32   61 1
@<TRIPOS>MOLECULE
CHEMBL482708
   44    47     0     0     0
SMALL
USER_CHARGES

@<TRIPOS>ATOM
      1 C1         -0.1550    1.4563    0.0123 C.3       1 <0>         0.0968
      2 N1         -0.0874   -0.0071    0.0035 N.pl3     1 <0>        -0.5791
      3 C2         -0.0207   -0.7040    1.1976 C.ar      1 <0>         0.5808
      4 N2          0.0453   -2.0276    1.1696 N.ar      1 <0>        -0.5772
      5 C3          0.1109   -2.7329    2.2897 C.ar      1 <0>         0.2068
      6 C4          0.1103   -2.0759    3.5039 C.ar      1 <0>        -0.3155
      7 C5          0.0397   -0.6753    3.5050 C.ar      1 <0>         0.3130
      8 N3         -0.0191   -0.0313    2.3370 N.ar      1 <0>        -0.5634
      9 C6          0.0358    0.0730    4.7734 C.2       1 <0>        -0.0628
     10 C7          0.1090    1.4415    4.9230 C.2       1 <0>         0.1168
     11 N4          0.0772    1.7210    6.2207 N.2       1 <0>        -0.4947
     12 C8         -0.0135    0.5935    6.9187 C.2       1 <0>         0.2413
     13 N5         -0.0477   -0.4578    6.0429 N.pl3     1 <0>        -0.3423
     14 C9         -0.1455   -1.7374    6.4997 C.2       1 <0>         0.0456
     15 C10        -0.2145   -1.9917    7.8249 C.2       1 <0>        -0.1341
     16 C11        -0.1860   -0.9358    8.7486 C.2       1 <0>        -0.0932
     17 C12        -0.0789    0.3466    8.3032 C.2       1 <0>        -0.0799
     18 C13        -0.0904   -0.7329   -1.2690 C.3       1 <0>         0.1545
     19 C14         1.1167   -0.3022   -2.1047 C.3       1 <0>        -0.1271
     20 C15         1.1135   -1.0602   -3.4337 C.3       1 <0>        -0.1161
     21 C16        -0.1742   -0.7451   -4.1975 C.3       1 <0>        -0.1222
     22 C17        -1.3812   -1.1758   -3.3619 C.3       1 <0>        -0.1159
     23 C18        -1.3781   -0.4178   -2.0328 C.3       1 <0>        -0.1285
     24 H1          0.8544    1.8668   -0.0151 H         1 <0>         0.0530
     25 H2         -0.7106    1.7996   -0.8604 H         1 <0>         0.0706
     26 H3         -0.6590    1.7913    0.9188 H         1 <0>         0.0808
     27 H4          0.1640   -3.8110    2.2529 H         1 <0>         0.1694
     28 H5          0.1626   -2.6275    4.4310 H         1 <0>         0.1393
     29 H6          0.1807    2.1625    4.1221 H         1 <0>         0.1927
     30 H7         -0.1685   -2.5563    5.7960 H         1 <0>         0.1720
     31 H8         -0.2922   -3.0107    8.1743 H         1 <0>         0.1567
     32 H9         -0.2419   -1.1395    9.8078 H         1 <0>         0.1485
     33 H10        -0.0576    1.1673    9.0049 H         1 <0>         0.1572
     34 H11        -0.0352   -1.8043   -1.0763 H         1 <0>         0.1087
     35 H12         1.0615    0.7693   -2.2974 H         1 <0>         0.0650
     36 H13         2.0341   -0.5267   -1.5605 H         1 <0>         0.0639
     37 H14         1.9735   -0.7533   -4.0290 H         1 <0>         0.0659
     38 H15         1.1688   -2.1316   -3.2410 H         1 <0>         0.0650
     39 H16        -0.2294    0.3264   -4.3902 H         1 <0>         0.0625
     40 H17        -0.1764   -1.2851   -5.1443 H         1 <0>         0.0645
     41 H18        -2.2986   -0.9513   -3.9060 H         1 <0>         0.0660
     42 H19        -1.3260   -2.2472   -3.1692 H         1 <0>         0.0651
     43 H20        -2.2380   -0.7247   -1.4375 H         1 <0>         0.0642
     44 H21        -1.4333    0.6536   -2.2255 H         1 <0>         0.0656
@<TRIPOS>BOND
     1    1    2 1
     2    1   24 1
     3    1   25 1
     4    1   26 1
     5    2    3 1
     6    2   18 1
     7    3    8 ar
     8    3    4 ar
     9    4    5 ar
    10    5    6 ar
    11    5   27 1
    12    6    7 ar
    13    6   28 1
    14    7    8 ar
    15    7    9 1
    16    9   13 1
    17    9   10 2
    18   10   11 1
    19   10   29 1
    20   11   12 2
    21   12   17 1
    22   12   13 1
    23   13   14 1
    24   14   15 2
    25   14   30 1
    26   15   16 1
    27   15   31 1
    28   16   17 2
    29   16   32 1
    30   17   33 1
    31   18   23 1
    32   18   19 1
    33   18   34 1
    34   19   20 1
    35   19   35 1
    36   19   36 1
    37   20   21 1
    38   20   37 1
    39   20   38 1
    40   21   22 1
    41   21   39 1
    42   21   40 1
    43   22   23 1
    44   22   41 1
    45   22   42 1
    46   23   43 1
    47   23   44 1
@<TRIPOS>MOLECULE
CHEMBL482708__1
   45    48     0     0     0
SMALL
USER_CHARGES

@<TRIPOS>ATOM
      1 C1         -0.1550    1.4563    0.0123 C.3       1 <0>         0.0917
      2 N1         -0.0874   -0.0071    0.0035 N.pl3     1 <0>        -0.5687
      3 C2         -0.0207   -0.7040    1.1976 C.ar      1 <0>         0.5876
      4 N2          0.0453   -2.0276    1.1696 N.ar      1 <0>        -0.5545
      5 C3          0.1109   -2.7329    2.2897 C.ar      1 <0>         0.2215
      6 C4          0.1103   -2.0759    3.5039 C.ar      1 <0>        -0.2999
      7 C5          0.0397   -0.6753    3.5050 C.ar      1 <0>         0.2750
      8 N3         -0.0191   -0.0313    2.3370 N.ar      1 <0>        -0.5581
      9 C6          0.0358    0.0730    4.7734 C.2       1 <0>         0.0317
     10 C7          0.1090    1.4415    4.9230 C.2       1 <0>         0.1348
     11 N4          0.0772    1.7210    6.2207 N.pl3     1 <0>        -0.5017
     12 C8         -0.0135    0.5935    6.9187 C.cat     1 <0>         0.3025
     13 N5         -0.0477   -0.4578    6.0429 N.pl3     1 <0>        -0.3122
     14 C9         -0.1455   -1.7374    6.4997 C.2       1 <0>         0.0737
     15 C10        -0.2145   -1.9917    7.8249 C.2       1 <0>        -0.1035
     16 C11        -0.1860   -0.9358    8.7486 C.2       1 <0>        -0.0173
     17 C12        -0.0789    0.3466    8.3032 C.2       1 <0>        -0.1169
     18 C13        -0.0904   -0.7329   -1.2690 C.3       1 <0>         0.1495
     19 C14         1.1167   -0.3022   -2.1047 C.3       1 <0>        -0.1265
     20 C15         1.1135   -1.0602   -3.4337 C.3       1 <0>        -0.1172
     21 C16        -0.1742   -0.7451   -4.1975 C.3       1 <0>        -0.1242
     22 C17        -1.3812   -1.1758   -3.3619 C.3       1 <0>        -0.1170
     23 C18        -1.3781   -0.4178   -2.0328 C.3       1 <0>        -0.1278
     24 H1          0.8544    1.8668   -0.0151 H         1 <0>         0.0587
     25 H2         -0.7106    1.7996   -0.8604 H         1 <0>         0.0784
     26 H3         -0.6590    1.7913    0.9188 H         1 <0>         0.0788
     27 H4          0.1640   -3.8110    2.2529 H         1 <0>         0.1810
     28 H5          0.1626   -2.6275    4.4310 H         1 <0>         0.1423
     29 H6          0.1807    2.1625    4.1221 H         1 <0>         0.2388
     30 H7         -0.1685   -2.5563    5.7960 H         1 <0>         0.2043
     31 H8         -0.2922   -3.0107    8.1743 H         1 <0>         0.1873
     32 H9         -0.2419   -1.1395    9.8078 H         1 <0>         0.1787
     33 H10        -0.0576    1.1673    9.0049 H         1 <0>         0.1836
     34 H11        -0.0352   -1.8043   -1.0763 H         1 <0>         0.1115
     35 H12         1.0615    0.7693   -2.2974 H         1 <0>         0.0667
     36 H13         2.0341   -0.5267   -1.5605 H         1 <0>         0.0643
     37 H14         1.9735   -0.7533   -4.0290 H         1 <0>         0.0694
     38 H15         1.1688   -2.1316   -3.2410 H         1 <0>         0.0665
     39 H16        -0.2294    0.3264   -4.3902 H         1 <0>         0.0637
     40 H17        -0.1764   -1.2851   -5.1443 H         1 <0>         0.0683
     41 H18        -2.2986   -0.9513   -3.9060 H         1 <0>         0.0695
     42 H19        -1.3260   -2.2472   -3.1692 H         1 <0>         0.0666
     43 H20        -2.2380   -0.7247   -1.4375 H         1 <0>         0.0647
     44 H21        -1.4333    0.6536   -2.2255 H         1 <0>         0.0672
     45 H22         0.1144    2.6124    6.6014 H         1 <0>         0.4671
@<TRIPOS>BOND
     1    1    2 1
     2    1   24 1
     3    1   25 1
     4    1   26 1
     5    2    3 1
     6    2   18 1
     7    3    8 ar
     8    3    4 ar
     9    4    5 ar
    10    5    6 ar
    11    5   27 1
    12    6    7 ar
    13    6   28 1
    14    7    8 ar
    15    7    9 1
    16    9   13 1
    17    9   10 2
    18   10   11 1
    19   10   29 1
    20   11   12 2
    21   11   45 1
    22   12   17 1
    23   12   13 1
    24   13   14 1
    25   14   15 2
    26   14   30 1
    27   15   16 1
    28   15   31 1
    29   16   17 2
    30   16   32 1
    31   17   33 1
    32   18   23 1
    33   18   19 1
    34   18   34 1
    35   19   20 1
    36   19   35 1
    37   19   36 1
    38   20   21 1
    39   20   37 1
    40   20   38 1
    41   21   22 1
    42   21   39 1
    43   21   40 1
    44   22   23 1
    45   22   41 1
    46   22   42 1
    47   23   43 1
    48   23   44 1
@<TRIPOS>MOLECULE
CHEMBL191384
   43    46     0     0     0
SMALL
USER_CHARGES

@<TRIPOS>ATOM
      1 C1         -0.0166    1.3699    0.0096 C.ar      1 <0>        -0.0763
      2 C2          1.1572    2.1045    0.0023 C.ar      1 <0>        -0.1192
      3 C3          2.3694    1.4373   -0.0129 C.ar      1 <0>        -0.0387
      4 C4          2.3887    0.0627   -0.0205 C.ar      1 <0>        -0.1572
      5 C5          1.2179   -0.7095   -0.0134 C.ar      1 <0>         0.1248
      6 C6          0.0021   -0.0041    0.0020 C.ar      1 <0>        -0.1197
      7 N1          1.3955   -2.0811   -0.0225 N.pl3     1 <0>        -0.6085
      8 C7          2.6545   -2.6113   -0.0374 C.2       1 <0>         0.2611
      9 C8          3.0385   -3.9533   -0.0487 C.2       1 <0>        -0.1383
     10 C9          4.4277   -4.3004   -0.0638 C.1       1 <0>         0.2759
     11 N2          5.5298   -4.5757   -0.0757 N.1       1 <0>        -0.4147
     12 C10         2.0145   -5.0127   -0.0451 C.ar      1 <0>         0.3134
     13 C11         2.3877   -6.3651   -0.0505 C.ar      1 <0>        -0.2831
     14 C12         1.4023   -7.3159   -0.0470 C.ar      1 <0>         0.2039
     15 N3          0.1312   -6.9385   -0.0385 N.ar      1 <0>        -0.5783
     16 C13        -0.2016   -5.6556   -0.0335 C.ar      1 <0>         0.5825
     17 N4          0.7163   -4.7013   -0.0311 N.ar      1 <0>        -0.6074
     18 N5         -1.5405   -5.3051   -0.0252 N.pl3     1 <0>        -0.7022
     19 C14        -2.5705   -6.3470   -0.0221 C.3       1 <0>         0.1446
     20 C15        -3.9548   -5.6956   -0.0128 C.3       1 <0>        -0.0882
     21 C16        -5.0143   -6.7673   -0.0096 C.ar      1 <0>        -0.1353
     22 C17        -5.5104   -7.2677   -1.2039 C.ar      1 <0>        -0.0687
     23 C18        -6.4843   -8.2529   -1.1527 C.ar      1 <0>        -0.1697
     24 C19        -6.9254   -8.7006    0.0785 C.ar      1 <0>         0.0982
     25 N6         -6.4311   -8.2013    1.1943 N.ar      1 <0>        -0.4828
     26 C20        -5.4995   -7.2678    1.1835 C.ar      1 <0>         0.1063
     27 S1          3.6842   -1.1528   -0.0394 S.3       1 <0>         0.0766
     28 H1         -0.9648    1.8866    0.0260 H         1 <0>         0.1391
     29 H2          1.1270    3.1841    0.0081 H         1 <0>         0.1430
     30 H3          3.2952    1.9934   -0.0191 H         1 <0>         0.1410
     31 H4         -0.9301   -0.5494    0.0080 H         1 <0>         0.1331
     32 H5          0.6237   -2.6686   -0.0180 H         1 <0>         0.4328
     33 H6          3.4294   -6.6500   -0.0577 H         1 <0>         0.1417
     34 H7          1.6584   -8.3651   -0.0513 H         1 <0>         0.1688
     35 H8         -1.7970   -4.3696   -0.0215 H         1 <0>         0.4100
     36 H9         -2.4654   -6.9644   -0.9142 H         1 <0>         0.0703
     37 H10        -2.4555   -6.9688    0.8657 H         1 <0>         0.0716
     38 H11        -4.0599   -5.0781    0.8793 H         1 <0>         0.0841
     39 H12        -4.0697   -5.0737   -0.9006 H         1 <0>         0.0823
     40 H13        -5.1470   -6.8984   -2.1515 H         1 <0>         0.1347
     41 H14        -6.8935   -8.6652   -2.0631 H         1 <0>         0.1369
     42 H15        -7.6839   -9.4678    0.1270 H         1 <0>         0.1570
     43 H16        -5.1148   -6.8868    2.1180 H         1 <0>         0.1548
@<TRIPOS>BOND
     1    1    6 ar
     2    1    2 ar
     3    1   28 1
     4    2    3 ar
     5    2   29 1
     6    3    4 ar
     7    3   30 1
     8    4   27 1
     9    4    5 ar
    10    5    6 ar
    11    5    7 1
    12    6   31 1
    13    7    8 1
    14    7   32 1
    15    8    9 2
    16    8   27 1
    17    9   10 1
    18    9   12 1
    19   10   11 3
    20   12   17 ar
    21   12   13 ar
    22   13   14 ar
    23   13   33 1
    24   14   15 ar
    25   14   34 1
    26   15   16 ar
    27   16   17 ar
    28   16   18 1
    29   18   19 1
    30   18   35 1
    31   19   20 1
    32   19   36 1
    33   19   37 1
    34   20   21 1
    35   20   38 1
    36   20   39 1
    37   21   26 ar
    38   21   22 ar
    39   22   23 ar
    40   22   40 1
    41   23   24 ar
    42   23   41 1
    43   24   25 ar
    44   24   42 1
    45   25   26 ar
    46   26   43 1
@<TRIPOS>MOLECULE
CHEMBL191384__1
   43    46     0     0     0
SMALL
USER_CHARGES

@<TRIPOS>ATOM
      1 C1         -0.0166    1.3699    0.0096 C.ar      1 <0>        -0.0800
      2 C2          1.1572    2.1045    0.0023 C.ar      1 <0>        -0.1190
      3 C3          2.3694    1.4373   -0.0129 C.ar      1 <0>        -0.0394
      4 C4          2.3887    0.0627   -0.0205 C.ar      1 <0>        -0.1883
      5 C5          1.2179   -0.7095   -0.0134 C.ar      1 <0>         0.1191
      6 C6          0.0021   -0.0041    0.0020 C.ar      1 <0>        -0.1207
      7 N1          1.3955   -2.0811   -0.0225 N.pl3     1 <0>        -0.6290
      8 C7          2.6545   -2.6113   -0.0374 C.2       1 <0>         0.2414
      9 C8          3.0385   -3.9533   -0.0487 C.2       1 <0>        -0.1370
     10 C9          2.0433   -4.9829   -0.0452 C.1       1 <0>         0.2720
     11 N2          1.2537   -5.7996   -0.0424 N.1       1 <0>        -0.4249
     12 C10         4.4680   -4.3104   -0.0642 C.ar      1 <0>         0.3088
     13 C11         4.8666   -5.6555   -0.0815 C.ar      1 <0>        -0.2844
     14 C12         6.2058   -5.9409   -0.0954 C.ar      1 <0>         0.2007
     15 N3          7.0848   -4.9482   -0.0923 N.ar      1 <0>        -0.5794
     16 C13         6.6886   -3.6836   -0.0759 C.ar      1 <0>         0.5826
     17 N4          5.4049   -3.3593   -0.0676 N.ar      1 <0>        -0.5825
     18 N5          7.6395   -2.6778   -0.0728 N.pl3     1 <0>        -0.7005
     19 C14         9.0646   -3.0170   -0.0875 C.3       1 <0>         0.1450
     20 C15         9.8948   -1.7318   -0.0805 C.3       1 <0>        -0.0888
     21 C16        11.3608   -2.0808   -0.0957 C.ar      1 <0>        -0.1340
     22 C17        12.0518   -2.2615    1.0929 C.ar      1 <0>        -0.0689
     23 C18        13.3992   -2.5815    1.0307 C.ar      1 <0>        -0.1701
     24 C19        14.0048   -2.7089   -0.2053 C.ar      1 <0>         0.0971
     25 N6         13.3163   -2.5294   -1.3154 N.ar      1 <0>        -0.4833
     26 C20        12.0320   -2.2302   -1.2943 C.ar      1 <0>         0.1060
     27 S1          3.6842   -1.1528   -0.0394 S.3       1 <0>         0.1837
     28 H1         -0.9648    1.8866    0.0260 H         1 <0>         0.1374
     29 H2          1.1270    3.1841    0.0081 H         1 <0>         0.1413
     30 H3          3.2952    1.9934   -0.0191 H         1 <0>         0.1400
     31 H4         -0.9301   -0.5494    0.0080 H         1 <0>         0.1308
     32 H5          0.6237   -2.6686   -0.0180 H         1 <0>         0.4164
     33 H6          4.1333   -6.4484   -0.0833 H         1 <0>         0.1381
     34 H7          6.5434   -6.9667   -0.1085 H         1 <0>         0.1667
     35 H8          7.3622   -1.7483   -0.0608 H         1 <0>         0.4130
     36 H9          9.3060   -3.6103    0.7944 H         1 <0>         0.0692
     37 H10         9.2920   -3.5916   -0.9854 H         1 <0>         0.0705
     38 H11         9.6534   -1.1385   -0.9624 H         1 <0>         0.0847
     39 H12         9.6674   -1.1572    0.8174 H         1 <0>         0.0829
     40 H13        11.5523   -2.1551    2.0445 H         1 <0>         0.1348
     41 H14        13.9686   -2.7291    1.9364 H         1 <0>         0.1364
     42 H15        15.0542   -2.9580   -0.2624 H         1 <0>         0.1564
     43 H16        11.4998   -2.0959   -2.2244 H         1 <0>         0.1551
@<TRIPOS>BOND
     1    1    6 ar
     2    1    2 ar
     3    1   28 1
     4    2    3 ar
     5    2   29 1
     6    3    4 ar
     7    3   30 1
     8    4   27 1
     9    4    5 ar
    10    5    6 ar
    11    5    7 1
    12    6   31 1
    13    7    8 1
    14    7   32 1
    15    8    9 2
    16    8   27 1
    17    9   10 1
    18    9   12 1
    19   10   11 3
    20   12   17 ar
    21   12   13 ar
    22   13   14 ar
    23   13   33 1
    24   14   15 ar
    25   14   34 1
    26   15   16 ar
    27   16   17 ar
    28   16   18 1
    29   18   19 1
    30   18   35 1
    31   19   20 1
    32   19   36 1
    33   19   37 1
    34   20   21 1
    35   20   38 1
    36   20   39 1
    37   21   26 ar
    38   21   22 ar
    39   22   23 ar
    40   22   40 1
    41   23   24 ar
    42   23   41 1
    43   24   25 ar
    44   24   42 1
    45   25   26 ar
    46   26   43 1
@<TRIPOS>MOLECULE
CHEMBL191376
   50    53     0     0     0
SMALL
USER_CHARGES

@<TRIPOS>ATOM
      1 C1         -0.0166    1.3699    0.0096 C.ar      1 <0>        -0.0763
      2 C2          1.1572    2.1045    0.0023 C.ar      1 <0>        -0.1192
      3 C3          2.3694    1.4373   -0.0129 C.ar      1 <0>        -0.0388
      4 C4          2.3887    0.0627   -0.0205 C.ar      1 <0>        -0.1572
      5 C5          1.2179   -0.7095   -0.0134 C.ar      1 <0>         0.1248
      6 C6          0.0021   -0.0041    0.0020 C.ar      1 <0>        -0.1196
      7 N1          1.3955   -2.0811   -0.0225 N.pl3     1 <0>        -0.6085
      8 C7          2.6545   -2.6113   -0.0374 C.2       1 <0>         0.2612
      9 C8          3.0385   -3.9533   -0.0487 C.2       1 <0>        -0.1386
     10 C9          4.4277   -4.3004   -0.0638 C.1       1 <0>         0.2762
     11 N2          5.5298   -4.5757   -0.0757 N.1       1 <0>        -0.4150
     12 C10         2.0145   -5.0127   -0.0451 C.ar      1 <0>         0.3135
     13 C11         2.3877   -6.3651   -0.0505 C.ar      1 <0>        -0.2840
     14 C12         1.4023   -7.3159   -0.0470 C.ar      1 <0>         0.2038
     15 N3          0.1312   -6.9385   -0.0385 N.ar      1 <0>        -0.5789
     16 C13        -0.2016   -5.6556   -0.0335 C.ar      1 <0>         0.5825
     17 N4          0.7163   -4.7013   -0.0311 N.ar      1 <0>        -0.6079
     18 N5         -1.5405   -5.3051   -0.0252 N.pl3     1 <0>        -0.7007
     19 C14        -2.5705   -6.3470   -0.0221 C.3       1 <0>         0.1408
     20 C15        -3.9548   -5.6956   -0.0128 C.3       1 <0>        -0.1298
     21 C16        -5.0304   -6.7837   -0.0096 C.3       1 <0>         0.0596
     22 N6         -6.3596   -6.1582   -0.0006 N.3       1 <0>        -0.5374
     23 C17        -6.5951   -5.4392    1.2598 C.3       1 <0>         0.0135
     24 C18        -7.9634   -4.7547    1.2027 C.3       1 <0>         0.0626
     25 O1         -8.9710   -5.7357    0.9426 O.3       1 <0>        -0.3851
     26 C19        -8.7732   -6.4547   -0.2777 C.3       1 <0>         0.0627
     27 C20        -7.4131   -7.1564   -0.2356 C.3       1 <0>         0.0170
     28 S1          3.6842   -1.1528   -0.0394 S.3       1 <0>         0.0764
     29 H1         -0.9648    1.8866    0.0260 H         1 <0>         0.1391
     30 H2          1.1270    3.1841    0.0081 H         1 <0>         0.1430
     31 H3          3.2952    1.9934   -0.0191 H         1 <0>         0.1410
     32 H4         -0.9301   -0.5494    0.0080 H         1 <0>         0.1331
     33 H5          0.6237   -2.6686   -0.0180 H         1 <0>         0.4328
     34 H6          3.4294   -6.6500   -0.0577 H         1 <0>         0.1415
     35 H7          1.6584   -8.3651   -0.0513 H         1 <0>         0.1687
     36 H8         -1.7970   -4.3696   -0.0215 H         1 <0>         0.4097
     37 H9         -2.4654   -6.9644   -0.9142 H         1 <0>         0.0701
     38 H10        -2.4555   -6.9688    0.8657 H         1 <0>         0.0677
     39 H11        -4.0599   -5.0781    0.8793 H         1 <0>         0.0695
     40 H12        -4.0697   -5.0737   -0.9006 H         1 <0>         0.0795
     41 H13        -4.9254   -7.4011   -0.9017 H         1 <0>         0.0817
     42 H14        -4.9155   -7.4055    0.8783 H         1 <0>         0.0407
     43 H15        -6.5754   -6.1447    2.0905 H         1 <0>         0.0443
     44 H16        -5.8180   -4.6880    1.4010 H         1 <0>         0.0880
     45 H17        -8.1669   -4.2679    2.1565 H         1 <0>         0.0986
     46 H18        -7.9652   -4.0109    0.4059 H         1 <0>         0.0601
     47 H19        -9.5624   -7.1973   -0.3947 H         1 <0>         0.0997
     48 H20        -8.7986   -5.7603   -1.1175 H         1 <0>         0.0606
     49 H21        -7.2331   -7.6587   -1.1861 H         1 <0>         0.0883
     50 H22        -7.4066   -7.8893    0.5711 H         1 <0>         0.0448
@<TRIPOS>BOND
     1    1    6 ar
     2    1    2 ar
     3    1   29 1
     4    2    3 ar
     5    2   30 1
     6    3    4 ar
     7    3   31 1
     8    4   28 1
     9    4    5 ar
    10    5    6 ar
    11    5    7 1
    12    6   32 1
    13    7    8 1
    14    7   33 1
    15    8    9 2
    16    8   28 1
    17    9   10 1
    18    9   12 1
    19   10   11 3
    20   12   17 ar
    21   12   13 ar
    22   13   14 ar
    23   13   34 1
    24   14   15 ar
    25   14   35 1
    26   15   16 ar
    27   16   17 ar
    28   16   18 1
    29   18   19 1
    30   18   36 1
    31   19   20 1
    32   19   37 1
    33   19   38 1
    34   20   21 1
    35   20   39 1
    36   20   40 1
    37   21   22 1
    38   21   41 1
    39   21   42 1
    40   22   27 1
    41   22   23 1
    42   23   24 1
    43   23   43 1
    44   23   44 1
    45   24   25 1
    46   24   45 1
    47   24   46 1
    48   25   26 1
    49   26   27 1
    50   26   47 1
    51   26   48 1
    52   27   49 1
    53   27   50 1
@<TRIPOS>MOLECULE
CHEMBL191376__1
   51    54     0     0     0
SMALL
USER_CHARGES

@<TRIPOS>ATOM
      1 C1         -0.0166    1.3699    0.0096 C.ar      1 <0>        -0.0770
      2 C2          1.1572    2.1045    0.0023 C.ar      1 <0>        -0.1158
      3 C3          2.3694    1.4373   -0.0129 C.ar      1 <0>        -0.0413
      4 C4          2.3887    0.0627   -0.0205 C.ar      1 <0>        -0.1872
      5 C5          1.2179   -0.7095   -0.0134 C.ar      1 <0>         0.1176
      6 C6          0.0021   -0.0041    0.0020 C.ar      1 <0>        -0.1172
      7 N1          1.3955   -2.0811   -0.0225 N.pl3     1 <0>        -0.6266
      8 C7          2.6545   -2.6113   -0.0374 C.2       1 <0>         0.2480
      9 C8          3.0385   -3.9533   -0.0487 C.2       1 <0>        -0.1413
     10 C9          2.0433   -4.9829   -0.0452 C.1       1 <0>         0.2656
     11 N2          1.2537   -5.7996   -0.0424 N.1       1 <0>        -0.4154
     12 C10         4.4680   -4.3104   -0.0642 C.ar      1 <0>         0.3141
     13 C11         4.8666   -5.6555   -0.0815 C.ar      1 <0>        -0.2738
     14 C12         6.2058   -5.9409   -0.0954 C.ar      1 <0>         0.1997
     15 N3          7.0848   -4.9482   -0.0923 N.ar      1 <0>        -0.5836
     16 C13         6.6886   -3.6836   -0.0759 C.ar      1 <0>         0.5777
     17 N4          5.4049   -3.3593   -0.0676 N.ar      1 <0>        -0.5798
     18 N5          7.6395   -2.6778   -0.0728 N.pl3     1 <0>        -0.7077
     19 C14         9.0646   -3.0170   -0.0875 C.3       1 <0>         0.1474
     20 C15         9.8948   -1.7318   -0.0805 C.3       1 <0>        -0.1653
     21 C16        11.3831   -2.0861   -0.0959 C.3       1 <0>        -0.0041
     22 N6         12.1803   -0.8522   -0.0892 N.4       1 <0>        -0.3851
     23 C17        11.9454   -0.1103   -1.3356 C.3       1 <0>        -0.0491
     24 C18        12.7768    1.1749   -1.3261 C.3       1 <0>         0.0361
     25 O1         14.1584    0.8415   -1.1656 O.3       1 <0>        -0.3565
     26 C19        14.4346    0.0966    0.0238 C.3       1 <0>         0.0355
     27 C20        13.6062   -1.1906    0.0168 C.3       1 <0>        -0.0435
     28 S1          3.6842   -1.1528   -0.0394 S.3       1 <0>         0.1725
     29 H1         -0.9648    1.8866    0.0260 H         1 <0>         0.1402
     30 H2          1.1270    3.1841    0.0081 H         1 <0>         0.1430
     31 H3          3.2952    1.9934   -0.0191 H         1 <0>         0.1388
     32 H4         -0.9301   -0.5494    0.0080 H         1 <0>         0.1334
     33 H5          0.6237   -2.6686   -0.0180 H         1 <0>         0.4187
     34 H6          4.1333   -6.4484   -0.0833 H         1 <0>         0.1425
     35 H7          6.5434   -6.9667   -0.1085 H         1 <0>         0.1702
     36 H8          7.3622   -1.7483   -0.0608 H         1 <0>         0.4135
     37 H9          9.3060   -3.6103    0.7944 H         1 <0>         0.0771
     38 H10         9.2920   -3.5916   -0.9854 H         1 <0>         0.0768
     39 H11         9.6534   -1.1385   -0.9624 H         1 <0>         0.0943
     40 H12         9.6674   -1.1572    0.8174 H         1 <0>         0.0952
     41 H13        11.6246   -2.6794    0.7860 H         1 <0>         0.1383
     42 H14        11.6106   -2.6607   -0.9938 H         1 <0>         0.1360
     43 H15        12.2379   -0.7263   -2.1860 H         1 <0>         0.1405
     44 H16        10.8878    0.1413   -1.4152 H         1 <0>         0.1432
     45 H17        12.6374    1.7056   -2.2679 H         1 <0>         0.1419
     46 H18        12.4570    1.8092   -0.4993 H         1 <0>         0.0812
     47 H19        15.4950   -0.1532    0.0590 H         1 <0>         0.1426
     48 H20        14.1715    0.6939    0.8968 H         1 <0>         0.0814
     49 H21        13.7816   -1.7409    0.9412 H         1 <0>         0.1440
     50 H22        13.8981   -1.8062   -0.8341 H         1 <0>         0.1402
     51 H23        11.9105   -0.2816    0.6980 H         1 <0>         0.4232
@<TRIPOS>BOND
     1    1    6 ar
     2    1    2 ar
     3    1   29 1
     4    2    3 ar
     5    2   30 1
     6    3    4 ar
     7    3   31 1
     8    4   28 1
     9    4    5 ar
    10    5    6 ar
    11    5    7 1
    12    6   32 1
    13    7    8 1
    14    7   33 1
    15    8    9 2
    16    8   28 1
    17    9   10 1
    18    9   12 1
    19   10   11 3
    20   12   17 ar
    21   12   13 ar
    22   13   14 ar
    23   13   34 1
    24   14   15 ar
    25   14   35 1
    26   15   16 ar
    27   16   17 ar
    28   16   18 1
    29   18   19 1
    30   18   36 1
    31   19   20 1
    32   19   37 1
    33   19   38 1
    34   20   21 1
    35   20   39 1
    36   20   40 1
    37   21   22 1
    38   21   41 1
    39   21   42 1
    40   22   27 1
    41   22   23 1
    42   22   51 1
    43   23   24 1
    44   23   43 1
    45   23   44 1
    46   24   25 1
    47   24   45 1
    48   24   46 1
    49   25   26 1
    50   26   27 1
    51   26   47 1
    52   26   48 1
    53   27   49 1
    54   27   50 1
@<TRIPOS>MOLECULE
CHEMBL191376__2
   51    54     0     0     0
SMALL
USER_CHARGES

@<TRIPOS>ATOM
      1 C1         -0.0166    1.3699    0.0096 C.ar      1 <0>        -0.0766
      2 C2          1.1572    2.1045    0.0023 C.ar      1 <0>        -0.1155
      3 C3          2.3694    1.4373   -0.0129 C.ar      1 <0>        -0.0361
      4 C4          2.3887    0.0627   -0.0205 C.ar      1 <0>        -0.1564
      5 C5          1.2179   -0.7095   -0.0134 C.ar      1 <0>         0.1203
      6 C6          0.0021   -0.0041    0.0020 C.ar      1 <0>        -0.1209
      7 N1          1.3955   -2.0811   -0.0225 N.pl3     1 <0>        -0.6080
      8 C7          2.6545   -2.6113   -0.0374 C.2       1 <0>         0.2616
      9 C8          3.0385   -3.9533   -0.0487 C.2       1 <0>        -0.1414
     10 C9          4.4277   -4.3004   -0.0638 C.1       1 <0>         0.2693
     11 N2          5.5298   -4.5757   -0.0757 N.1       1 <0>        -0.4054
     12 C10         2.0145   -5.0127   -0.0451 C.ar      1 <0>         0.3185
     13 C11         2.3877   -6.3651   -0.0505 C.ar      1 <0>        -0.2727
     14 C12         1.4023   -7.3159   -0.0470 C.ar      1 <0>         0.2030
     15 N3          0.1312   -6.9385   -0.0385 N.ar      1 <0>        -0.5827
     16 C13        -0.2016   -5.6556   -0.0335 C.ar      1 <0>         0.5777
     17 N4          0.7163   -4.7013   -0.0311 N.ar      1 <0>        -0.6052
     18 N5         -1.5405   -5.3051   -0.0252 N.pl3     1 <0>        -0.7094
     19 C14        -2.5705   -6.3470   -0.0221 C.3       1 <0>         0.1470
     20 C15        -3.9548   -5.6956   -0.0128 C.3       1 <0>        -0.1651
     21 C16        -5.0304   -6.7837   -0.0096 C.3       1 <0>        -0.0042
     22 N6         -6.3596   -6.1582   -0.0006 N.4       1 <0>        -0.3851
     23 C17        -6.5472   -5.4239    1.2582 C.3       1 <0>        -0.0490
     24 C18        -7.9326   -4.7730    1.2649 C.3       1 <0>         0.0362
     25 O1         -8.9295   -5.7842    1.0931 O.3       1 <0>        -0.3560
     26 C19        -8.7751   -6.5439   -0.1089 C.3       1 <0>         0.0355
     27 C20        -7.3912   -7.1980   -0.1182 C.3       1 <0>        -0.0435
     28 S1          3.6842   -1.1528   -0.0394 S.3       1 <0>         0.0897
     29 H1         -0.9648    1.8866    0.0260 H         1 <0>         0.1392
     30 H2          1.1270    3.1841    0.0081 H         1 <0>         0.1453
     31 H3          3.2952    1.9934   -0.0191 H         1 <0>         0.1437
     32 H4         -0.9301   -0.5494    0.0080 H         1 <0>         0.1293
     33 H5          0.6237   -2.6686   -0.0180 H         1 <0>         0.4299
     34 H6          3.4294   -6.6500   -0.0577 H         1 <0>         0.1460
     35 H7          1.6584   -8.3651   -0.0513 H         1 <0>         0.1722
     36 H8         -1.7970   -4.3696   -0.0215 H         1 <0>         0.4105
     37 H9         -2.4654   -6.9644   -0.9142 H         1 <0>         0.0782
     38 H10        -2.4555   -6.9688    0.8657 H         1 <0>         0.0780
     39 H11        -4.0599   -5.0781    0.8793 H         1 <0>         0.0938
     40 H12        -4.0697   -5.0737   -0.9006 H         1 <0>         0.0947
     41 H13        -4.9254   -7.4011   -0.9017 H         1 <0>         0.1387
     42 H14        -4.9155   -7.4055    0.8783 H         1 <0>         0.1365
     43 H15        -6.4658   -6.1145    2.0976 H         1 <0>         0.1407
     44 H16        -5.7824   -4.6522    1.3464 H         1 <0>         0.1423
     45 H17        -8.0909   -4.2637    2.2155 H         1 <0>         0.1421
     46 H18        -8.0004   -4.0528    0.4496 H         1 <0>         0.0811
     47 H19        -9.5430   -7.3161   -0.1527 H         1 <0>         0.1431
     48 H20        -8.8717   -5.8843   -0.9713 H         1 <0>         0.0815
     49 H21        -7.2530   -7.7433   -1.0519 H         1 <0>         0.1443
     50 H22        -7.3095   -7.8879    0.7217 H         1 <0>         0.1405
     51 H23        -6.4360   -5.5191   -0.7777 H         1 <0>         0.4231
@<TRIPOS>BOND
     1    1    6 ar
     2    1    2 ar
     3    1   29 1
     4    2    3 ar
     5    2   30 1
     6    3    4 ar
     7    3   31 1
     8    4   28 1
     9    4    5 ar
    10    5    6 ar
    11    5    7 1
    12    6   32 1
    13    7    8 1
    14    7   33 1
    15    8    9 2
    16    8   28 1
    17    9   10 1
    18    9   12 1
    19   10   11 3
    20   12   17 ar
    21   12   13 ar
    22   13   14 ar
    23   13   34 1
    24   14   15 ar
    25   14   35 1
    26   15   16 ar
    27   16   17 ar
    28   16   18 1
    29   18   19 1
    30   18   36 1
    31   19   20 1
    32   19   37 1
    33   19   38 1
    34   20   21 1
    35   20   39 1
    36   20   40 1
    37   21   22 1
    38   21   41 1
    39   21   42 1
    40   22   27 1
    41   22   23 1
    42   22   51 1
    43   23   24 1
    44   23   43 1
    45   23   44 1
    46   24   25 1
    47   24   45 1
    48   24   46 1
    49   25   26 1
    50   26   27 1
    51   26   47 1
    52   26   48 1
    53   27   49 1
    54   27   50 1
@<TRIPOS>MOLECULE
CHEMBL191376__3
   50    53     0     0     0
SMALL
USER_CHARGES

@<TRIPOS>ATOM
      1 C1         -0.0166    1.3699    0.0096 C.ar      1 <0>        -0.0800
      2 C2          1.1572    2.1045    0.0023 C.ar      1 <0>        -0.1190
      3 C3          2.3694    1.4373   -0.0129 C.ar      1 <0>        -0.0394
      4 C4          2.3887    0.0627   -0.0205 C.ar      1 <0>        -0.1883
      5 C5          1.2179   -0.7095   -0.0134 C.ar      1 <0>         0.1191
      6 C6          0.0021   -0.0041    0.0020 C.ar      1 <0>        -0.1208
      7 N1          1.3955   -2.0811   -0.0225 N.pl3     1 <0>        -0.6290
      8 C7          2.6545   -2.6113   -0.0374 C.2       1 <0>         0.2413
      9 C8          3.0385   -3.9533   -0.0487 C.2       1 <0>        -0.1372
     10 C9          2.0433   -4.9829   -0.0452 C.1       1 <0>         0.2723
     11 N2          1.2537   -5.7996   -0.0424 N.1       1 <0>        -0.4252
     12 C10         4.4680   -4.3104   -0.0642 C.ar      1 <0>         0.3089
     13 C11         4.8666   -5.6555   -0.0815 C.ar      1 <0>        -0.2854
     14 C12         6.2058   -5.9409   -0.0954 C.ar      1 <0>         0.2005
     15 N3          7.0848   -4.9482   -0.0923 N.ar      1 <0>        -0.5800
     16 C13         6.6886   -3.6836   -0.0759 C.ar      1 <0>         0.5825
     17 N4          5.4049   -3.3593   -0.0676 N.ar      1 <0>        -0.5830
     18 N5          7.6395   -2.6778   -0.0728 N.pl3     1 <0>        -0.6989
     19 C14         9.0646   -3.0170   -0.0875 C.3       1 <0>         0.1412
     20 C15         9.8948   -1.7318   -0.0805 C.3       1 <0>        -0.1300
     21 C16        11.3831   -2.0861   -0.0959 C.3       1 <0>         0.0597
     22 N6         12.1803   -0.8522   -0.0892 N.3       1 <0>        -0.5374
     23 C17        11.9941   -0.0979   -1.3373 C.3       1 <0>         0.0135
     24 C18        12.7935    1.2057   -1.2634 C.3       1 <0>         0.0625
     25 O1         14.1687    0.9024   -1.0141 O.3       1 <0>        -0.3855
     26 C19        14.3865    0.1686    0.1940 C.3       1 <0>         0.0627
     27 C20        13.6033   -1.1455    0.1349 C.3       1 <0>         0.0171
     28 S1          3.6842   -1.1528   -0.0394 S.3       1 <0>         0.1841
     29 H1         -0.9648    1.8866    0.0260 H         1 <0>         0.1374
     30 H2          1.1270    3.1841    0.0081 H         1 <0>         0.1413
     31 H3          3.2952    1.9934   -0.0191 H         1 <0>         0.1400
     32 H4         -0.9301   -0.5494    0.0080 H         1 <0>         0.1308
     33 H5          0.6237   -2.6686   -0.0180 H         1 <0>         0.4163
     34 H6          4.1333   -6.4484   -0.0833 H         1 <0>         0.1379
     35 H7          6.5434   -6.9667   -0.1085 H         1 <0>         0.1666
     36 H8          7.3622   -1.7483   -0.0608 H         1 <0>         0.4127
     37 H9          9.3060   -3.6103    0.7944 H         1 <0>         0.0690
     38 H10         9.2920   -3.5916   -0.9854 H         1 <0>         0.0666
     39 H11         9.6534   -1.1385   -0.9624 H         1 <0>         0.0699
     40 H12         9.6674   -1.1572    0.8174 H         1 <0>         0.0800
     41 H13        11.6246   -2.6794    0.7860 H         1 <0>         0.0813
     42 H14        11.6106   -2.6607   -0.9938 H         1 <0>         0.0402
     43 H15        12.3469   -0.6940   -2.1789 H         1 <0>         0.0440
     44 H16        10.9367    0.1306   -1.4702 H         1 <0>         0.0889
     45 H17        12.7045    1.7413   -2.2086 H         1 <0>         0.0984
     46 H18        12.4052    1.8255   -0.4552 H         1 <0>         0.0603
     47 H19        15.4497   -0.0458    0.3029 H         1 <0>         0.0992
     48 H20        14.0445    0.7582    1.0446 H         1 <0>         0.0606
     49 H21        13.7205   -1.6817    1.0766 H         1 <0>         0.0880
     50 H22        13.9819   -1.7583   -0.6832 H         1 <0>         0.0444
@<TRIPOS>BOND
     1    1    6 ar
     2    1    2 ar
     3    1   29 1
     4    2    3 ar
     5    2   30 1
     6    3    4 ar
     7    3   31 1
     8    4   28 1
     9    4    5 ar
    10    5    6 ar
    11    5    7 1
    12    6   32 1
    13    7    8 1
    14    7   33 1
    15    8    9 2
    16    8   28 1
    17    9   10 1
    18    9   12 1
    19   10   11 3
    20   12   17 ar
    21   12   13 ar
    22   13   14 ar
    23   13   34 1
    24   14   15 ar
    25   14   35 1
    26   15   16 ar
    27   16   17 ar
    28   16   18 1
    29   18   19 1
    30   18   36 1
    31   19   20 1
    32   19   37 1
    33   19   38 1
    34   20   21 1
    35   20   39 1
    36   20   40 1
    37   21   22 1
    38   21   41 1
    39   21   42 1
    40   22   27 1
    41   22   23 1
    42   23   24 1
    43   23   43 1
    44   23   44 1
    45   24   25 1
    46   24   45 1
    47   24   46 1
    48   25   26 1
    49   26   27 1
    50   26   47 1
    51   26   48 1
    52   27   49 1
    53   27   50 1
@<TRIPOS>MOLECULE
CHEMBL370889
   44    47     0     0     0
SMALL
USER_CHARGES

@<TRIPOS>ATOM
      1 C1         -0.0166    1.3699    0.0096 C.ar      1 <0>        -0.0762
      2 C2          1.1572    2.1045    0.0023 C.ar      1 <0>        -0.1188
      3 C3          2.3694    1.4373   -0.0129 C.ar      1 <0>        -0.0389
      4 C4          2.3887    0.0627   -0.0205 C.ar      1 <0>        -0.1571
      5 C5          1.2179   -0.7095   -0.0134 C.ar      1 <0>         0.1243
      6 C6          0.0021   -0.0041    0.0020 C.ar      1 <0>        -0.1194
      7 N1          1.3955   -2.0811   -0.0225 N.pl3     1 <0>        -0.6083
      8 C7          2.6545   -2.6113   -0.0374 C.2       1 <0>         0.2616
      9 C8          3.0385   -3.9533   -0.0487 C.2       1 <0>        -0.1396
     10 C9          4.4277   -4.3004   -0.0638 C.1       1 <0>         0.2763
     11 N2          5.5298   -4.5757   -0.0757 N.1       1 <0>        -0.4149
     12 C10         2.0145   -5.0127   -0.0451 C.ar      1 <0>         0.3142
     13 C11         2.3877   -6.3651   -0.0505 C.ar      1 <0>        -0.2833
     14 C12         1.4023   -7.3159   -0.0470 C.ar      1 <0>         0.2039
     15 N3          0.1312   -6.9385   -0.0385 N.ar      1 <0>        -0.5792
     16 C13        -0.2016   -5.6556   -0.0335 C.ar      1 <0>         0.5830
     17 N4          0.7163   -4.7013   -0.0311 N.ar      1 <0>        -0.6076
     18 N5         -1.5405   -5.3051   -0.0252 N.pl3     1 <0>        -0.7010
     19 C14        -2.5705   -6.3470   -0.0221 C.3       1 <0>         0.1429
     20 C15        -3.9548   -5.6956   -0.0128 C.3       1 <0>        -0.1454
     21 C16        -5.0304   -6.7837   -0.0096 C.3       1 <0>         0.1395
     22 N6         -6.3560   -6.1599   -0.0007 N.pl3     1 <0>        -0.3750
     23 C17        -7.3476   -6.3901   -0.8865 C.2       1 <0>         0.0535
     24 C18        -8.4038   -5.6220   -0.5321 C.2       1 <0>        -0.2740
     25 C19        -8.0453   -4.8976    0.6094 C.2       1 <0>         0.0456
     26 N7         -6.8201   -5.2238    0.9324 N.2       1 <0>        -0.2966
     27 S1          3.6842   -1.1528   -0.0394 S.3       1 <0>         0.0772
     28 H1         -0.9648    1.8866    0.0260 H         1 <0>         0.1392
     29 H2          1.1270    3.1841    0.0081 H         1 <0>         0.1432
     30 H3          3.2952    1.9934   -0.0191 H         1 <0>         0.1412
     31 H4         -0.9301   -0.5494    0.0080 H         1 <0>         0.1330
     32 H5          0.6237   -2.6686   -0.0180 H         1 <0>         0.4327
     33 H6          3.4294   -6.6500   -0.0577 H         1 <0>         0.1419
     34 H7          1.6584   -8.3651   -0.0513 H         1 <0>         0.1693
     35 H8         -1.7970   -4.3696   -0.0215 H         1 <0>         0.4107
     36 H9         -2.4654   -6.9644   -0.9142 H         1 <0>         0.0719
     37 H10        -2.4555   -6.9688    0.8657 H         1 <0>         0.0732
     38 H11        -4.0599   -5.0781    0.8793 H         1 <0>         0.0859
     39 H12        -4.0697   -5.0737   -0.9006 H         1 <0>         0.0754
     40 H13        -4.9254   -7.4011   -0.9017 H         1 <0>         0.1007
     41 H14        -4.9155   -7.4055    0.8783 H         1 <0>         0.0898
     42 H15        -7.3057   -7.0659   -1.7279 H         1 <0>         0.1740
     43 H16        -9.3552   -5.5759   -1.0411 H         1 <0>         0.1480
     44 H17        -8.6732   -4.1943    1.1362 H         1 <0>         0.1832
@<TRIPOS>BOND
     1    1    6 ar
     2    1    2 ar
     3    1   28 1
     4    2    3 ar
     5    2   29 1
     6    3    4 ar
     7    3   30 1
     8    4   27 1
     9    4    5 ar
    10    5    6 ar
    11    5    7 1
    12    6   31 1
    13    7    8 1
    14    7   32 1
    15    8    9 2
    16    8   27 1
    17    9   10 1
    18    9   12 1
    19   10   11 3
    20   12   17 ar
    21   12   13 ar
    22   13   14 ar
    23   13   33 1
    24   14   15 ar
    25   14   34 1
    26   15   16 ar
    27   16   17 ar
    28   16   18 1
    29   18   19 1
    30   18   35 1
    31   19   20 1
    32   19   36 1
    33   19   37 1
    34   20   21 1
    35   20   38 1
    36   20   39 1
    37   21   22 1
    38   21   40 1
    39   21   41 1
    40   22   26 1
    41   22   23 1
    42   23   24 2
    43   23   42 1
    44   24   25 1
    45   24   43 1
    46   25   26 2
    47   25   44 1
@<TRIPOS>MOLECULE
CHEMBL370889__1
   44    47     0     0     0
SMALL
USER_CHARGES

@<TRIPOS>ATOM
      1 C1         -0.0166    1.3699    0.0096 C.ar      1 <0>        -0.0799
      2 C2          1.1572    2.1045    0.0023 C.ar      1 <0>        -0.1187
      3 C3          2.3694    1.4373   -0.0129 C.ar      1 <0>        -0.0394
      4 C4          2.3887    0.0627   -0.0205 C.ar      1 <0>        -0.1881
      5 C5          1.2179   -0.7095   -0.0134 C.ar      1 <0>         0.1188
      6 C6          0.0021   -0.0041    0.0020 C.ar      1 <0>        -0.1206
      7 N1          1.3955   -2.0811   -0.0225 N.pl3     1 <0>        -0.6287
      8 C7          2.6545   -2.6113   -0.0374 C.2       1 <0>         0.2418
      9 C8          3.0385   -3.9533   -0.0487 C.2       1 <0>        -0.1381
     10 C9          2.0433   -4.9829   -0.0452 C.1       1 <0>         0.2723
     11 N2          1.2537   -5.7996   -0.0424 N.1       1 <0>        -0.4251
     12 C10         4.4680   -4.3104   -0.0642 C.ar      1 <0>         0.3095
     13 C11         4.8666   -5.6555   -0.0815 C.ar      1 <0>        -0.2846
     14 C12         6.2058   -5.9409   -0.0954 C.ar      1 <0>         0.2006
     15 N3          7.0848   -4.9482   -0.0923 N.ar      1 <0>        -0.5803
     16 C13         6.6886   -3.6836   -0.0759 C.ar      1 <0>         0.5830
     17 N4          5.4049   -3.3593   -0.0676 N.ar      1 <0>        -0.5827
     18 N5          7.6395   -2.6778   -0.0728 N.pl3     1 <0>        -0.6992
     19 C14         9.0646   -3.0170   -0.0875 C.3       1 <0>         0.1433
     20 C15         9.8948   -1.7318   -0.0805 C.3       1 <0>        -0.1456
     21 C16        11.3831   -2.0861   -0.0959 C.3       1 <0>         0.1393
     22 N6         12.1781   -0.8556   -0.0892 N.pl3     1 <0>        -0.3744
     23 C17        13.1453   -0.5401    0.7974 C.2       1 <0>         0.0534
     24 C18        13.6337    0.6758    0.4596 C.2       1 <0>        -0.2746
     25 C19        12.9413    1.1186   -0.6721 C.2       1 <0>         0.0451
     26 N7         12.0726    0.1987   -1.0056 N.2       1 <0>        -0.2957
     27 S1          3.6842   -1.1528   -0.0394 S.3       1 <0>         0.1841
     28 H1         -0.9648    1.8866    0.0260 H         1 <0>         0.1375
     29 H2          1.1270    3.1841    0.0081 H         1 <0>         0.1414
     30 H3          3.2952    1.9934   -0.0191 H         1 <0>         0.1400
     31 H4         -0.9301   -0.5494    0.0080 H         1 <0>         0.1309
     32 H5          0.6237   -2.6686   -0.0180 H         1 <0>         0.4164
     33 H6          4.1333   -6.4484   -0.0833 H         1 <0>         0.1383
     34 H7          6.5434   -6.9667   -0.1085 H         1 <0>         0.1672
     35 H8          7.3622   -1.7483   -0.0608 H         1 <0>         0.4137
     36 H9          9.3060   -3.6103    0.7944 H         1 <0>         0.0708
     37 H10         9.2920   -3.5916   -0.9854 H         1 <0>         0.0721
     38 H11         9.6534   -1.1385   -0.9624 H         1 <0>         0.0864
     39 H12         9.6674   -1.1572    0.8174 H         1 <0>         0.0759
     40 H13        11.6246   -2.6794    0.7860 H         1 <0>         0.1003
     41 H14        11.6106   -2.6607   -0.9938 H         1 <0>         0.0895
     42 H15        13.4710   -1.1488    1.6279 H         1 <0>         0.1737
     43 H16        14.4190    1.2103    0.9735 H         1 <0>         0.1475
     44 H17        13.0997    2.0557   -1.1851 H         1 <0>         0.1829
@<TRIPOS>BOND
     1    1    6 ar
     2    1    2 ar
     3    1   28 1
     4    2    3 ar
     5    2   29 1
     6    3    4 ar
     7    3   30 1
     8    4   27 1
     9    4    5 ar
    10    5    6 ar
    11    5    7 1
    12    6   31 1
    13    7    8 1
    14    7   32 1
    15    8    9 2
    16    8   27 1
    17    9   10 1
    18    9   12 1
    19   10   11 3
    20   12   17 ar
    21   12   13 ar
    22   13   14 ar
    23   13   33 1
    24   14   15 ar
    25   14   34 1
    26   15   16 ar
    27   16   17 ar
    28   16   18 1
    29   18   19 1
    30   18   35 1
    31   19   20 1
    32   19   36 1
    33   19   37 1
    34   20   21 1
    35   20   38 1
    36   20   39 1
    37   21   22 1
    38   21   40 1
    39   21   41 1
    40   22   26 1
    41   22   23 1
    42   23   24 2
    43   23   42 1
    44   24   25 1
    45   24   43 1
    46   25   26 2
    47   25   44 1
@<TRIPOS>MOLECULE
CHEMBL246544
   48    51     0     0     0
SMALL
USER_CHARGES

@<TRIPOS>ATOM
      1 C1          0.4633    1.9852   -0.5656 C.3       1 <0>        -0.1654
      2 C2          0.4874    0.4610   -0.4347 C.3       1 <0>         0.1317
      3 N1          1.0570   -0.1247   -1.6507 N.am      1 <0>        -0.7448
      4 C3          1.1781   -1.4624   -1.7615 C.2       1 <0>         0.7213
      5 O1          0.8145   -2.1831   -0.8523 O.2       1 <0>        -0.5844
      6 N2          1.7021   -2.0012   -2.8802 N.am      1 <0>        -0.6369
      7 C4          2.1868   -1.2479   -4.0512 C.3       1 <0>         0.1017
      8 C5          3.2082   -2.1910   -4.7344 C.3       1 <0>        -0.1398
      9 C6          2.5418   -3.5764   -4.5246 C.3       1 <0>         0.1525
     10 C7          1.8910   -3.4373   -3.1324 C.3       1 <0>         0.1156
     11 N3          3.5488   -4.6404   -4.5186 N.pl3     1 <0>        -0.6848
     12 C8          3.1919   -5.9335   -4.8620 C.ar      1 <0>         0.5728
     13 N4          1.9357   -6.1883   -5.1984 N.ar      1 <0>        -0.5607
     14 C9          1.5533   -7.4115   -5.5338 C.ar      1 <0>         0.2132
     15 C10         2.4825   -8.4354   -5.5315 C.ar      1 <0>        -0.2032
     16 C11         3.8026   -8.1367   -5.1717 C.ar      1 <0>         0.3240
     17 N5          4.1153   -6.8814   -4.8508 N.ar      1 <0>        -0.5476
     18 C12         4.8342   -9.1961   -5.1534 C.2       1 <0>        -0.1583
     19 C13         5.0770  -10.1091   -6.1287 C.2       1 <0>         0.1144
     20 N6          6.1034  -10.9215   -5.7540 N.pl3     1 <0>        -0.5827
     21 H1          6.4572  -11.6501   -6.2877 H         1 <0>         0.4218
     22 C14         6.5678  -10.5594   -4.5075 C.ar      1 <0>         0.0900
     23 C15         5.8027   -9.4624   -4.0766 C.ar      1 <0>        -0.0685
     24 C16         6.0582   -8.8768   -2.8383 C.ar      1 <0>        -0.0655
     25 C17         7.0654   -9.3764   -2.0426 C.ar      1 <0>        -0.1395
     26 C18         7.8239  -10.4572   -2.4686 C.ar      1 <0>        -0.0979
     27 C19         7.5768  -11.0522   -3.6866 C.ar      1 <0>        -0.1261
     28 Cl1         2.0235  -10.0529   -5.9638 Cl        1 <0>        -0.0442
     29 H2          1.4795    2.3540   -0.7050 H         1 <0>         0.0613
     30 H3         -0.1462    2.2665   -1.4244 H         1 <0>         0.0617
     31 H4          0.0395    2.4210    0.3391 H         1 <0>         0.0767
     32 H5          1.0969    0.1797    0.4241 H         1 <0>         0.0665
     33 H6         -0.5288    0.0922   -0.2954 H         1 <0>         0.0670
     34 H7          1.3471    0.4503   -2.3761 H         1 <0>         0.3954
     35 H8          1.3617   -1.0276   -4.7286 H         1 <0>         0.0752
     36 H9          2.6746   -0.3263   -3.7339 H         1 <0>         0.0779
     37 H10         3.3042   -1.9602   -5.7953 H         1 <0>         0.0955
     38 H11         4.1769   -2.1441   -4.2368 H         1 <0>         0.0850
     39 H12         1.7881   -3.7616   -5.2900 H         1 <0>         0.1155
     40 H13         2.5441   -3.8645   -2.3715 H         1 <0>         0.0702
     41 H14         0.9266   -3.9452   -3.1238 H         1 <0>         0.0756
     42 H15         4.4657   -4.4391   -4.2741 H         1 <0>         0.4179
     43 H16         0.5266   -7.6069   -5.8058 H         1 <0>         0.1776
     44 H17         4.5369  -10.1803   -7.0613 H         1 <0>         0.1769
     45 H18         5.4696   -8.0351   -2.5043 H         1 <0>         0.1213
     46 H19         7.2659   -8.9243   -1.0825 H         1 <0>         0.1245
     47 H20         8.6111  -10.8405   -1.8362 H         1 <0>         0.1273
     48 H21         8.1746  -11.8918   -4.0093 H         1 <0>         0.1223
@<TRIPOS>BOND
     1    1    2 1
     2    1   29 1
     3    1   30 1
     4    1   31 1
     5    2    3 1
     6    2   32 1
     7    2   33 1
     8    3    4 am
     9    3   34 1
    10    4    5 2
    11    4    6 am
    12    6   10 1
    13    6    7 1
    14    7    8 1
    15    7   35 1
    16    7   36 1
    17    8    9 1
    18    8   37 1
    19    8   38 1
    20    9   10 1
    21    9   11 1
    22    9   39 1
    23   10   40 1
    24   10   41 1
    25   11   12 1
    26   11   42 1
    27   12   17 ar
    28   12   13 ar
    29   13   14 ar
    30   14   15 ar
    31   14   43 1
    32   15   16 ar
    33   15   28 1
    34   16   17 ar
    35   16   18 1
    36   18   23 1
    37   18   19 2
    38   19   20 1
    39   19   44 1
    40   20   21 1
    41   20   22 1
    42   22   27 ar
    43   22   23 ar
    44   23   24 ar
    45   24   25 ar
    46   24   45 1
    47   25   26 ar
    48   25   46 1
    49   26   27 ar
    50   26   47 1
    51   27   48 1
@<TRIPOS>MOLECULE
CHEMBL246544__1
   48    51     0     0     0
SMALL
USER_CHARGES

@<TRIPOS>ATOM
      1 C1         -0.2690    1.1609    0.4712 C.3       1 <0>        -0.1654
      2 C2         -0.1233   -0.3620    0.4528 C.3       1 <0>         0.1316
      3 N1          0.4706   -0.7804   -0.8194 N.am      1 <0>        -0.7444
      4 C3          0.6943   -2.0873   -1.0612 C.2       1 <0>         0.7223
      5 O1          0.4033   -2.9190   -0.2234 O.2       1 <0>        -0.5842
      6 N2          1.2407   -2.4722   -2.2316 N.am      1 <0>        -0.6362
      7 C4          1.6444   -1.5757   -3.3246 C.3       1 <0>         0.1020
      8 C5          2.2408   -2.4563   -4.4429 C.3       1 <0>        -0.1376
      9 C6          2.6587   -3.7443   -3.6854 C.3       1 <0>         0.1499
     10 C7          1.5383   -3.8614   -2.6252 C.3       1 <0>         0.1148
     11 N3          2.6603   -4.9033   -4.5814 N.pl3     1 <0>        -0.6836
     12 C8          3.4595   -5.9976   -4.2963 C.ar      1 <0>         0.5728
     13 N4          4.2119   -5.9805   -3.2057 N.ar      1 <0>        -0.5600
     14 C9          4.9901   -7.0071   -2.8968 C.ar      1 <0>         0.2133
     15 C10         5.0146   -8.1118   -3.7280 C.ar      1 <0>        -0.2029
     16 C11         4.2090   -8.1020   -4.8735 C.ar      1 <0>         0.3237
     17 N5          3.4476   -7.0355   -5.1174 N.ar      1 <0>        -0.5473
     18 C12         4.1990   -9.2586   -5.7948 C.2       1 <0>        -0.1585
     19 C13         4.0737  -10.5669   -5.4533 C.2       1 <0>         0.1149
     20 N6          4.1085  -11.3407   -6.5730 N.pl3     1 <0>        -0.5826
     21 H1          4.0371  -12.3080   -6.5812 H         1 <0>         0.4220
     22 C14         4.2595  -10.5519   -7.6936 C.ar      1 <0>         0.0900
     23 C15         4.3166   -9.2159   -7.2620 C.ar      1 <0>        -0.0684
     24 C16         4.4619   -8.1879   -8.1914 C.ar      1 <0>        -0.0657
     25 C17         4.5454   -8.4885   -9.5331 C.ar      1 <0>        -0.1398
     26 C18         4.4854   -9.8071   -9.9607 C.ar      1 <0>        -0.0984
     27 C19         4.3509  -10.8345   -9.0525 C.ar      1 <0>        -0.1257
     28 Cl1         6.0204   -9.4782   -3.3607 Cl        1 <0>        -0.0440
     29 H2          0.7128    1.6212    0.3597 H         1 <0>         0.0618
     30 H3         -0.9127    1.4743   -0.3507 H         1 <0>         0.0614
     31 H4         -0.7108    1.4722    1.4177 H         1 <0>         0.0767
     32 H5          0.5204   -0.6754    1.2747 H         1 <0>         0.0672
     33 H6         -1.1050   -0.8223    0.5643 H         1 <0>         0.0666
     34 H7          0.7027   -0.1168   -1.4878 H         1 <0>         0.3958
     35 H8          0.7757   -1.0359   -3.7014 H         1 <0>         0.0718
     36 H9          2.3953   -0.8708   -2.9677 H         1 <0>         0.0717
     37 H10         1.4888   -2.6807   -5.1994 H         1 <0>         0.0859
     38 H11         3.1091   -1.9740   -4.8918 H         1 <0>         0.0937
     39 H12         3.6311   -3.6193   -3.2090 H         1 <0>         0.1141
     40 H13         1.8874   -4.4329   -1.7652 H         1 <0>         0.0858
     41 H14         0.6553   -4.3299   -3.0600 H         1 <0>         0.0674
     42 H15         2.1015   -4.9042   -5.3743 H         1 <0>         0.4180
     43 H16         5.5992   -6.9814   -2.0053 H         1 <0>         0.1775
     44 H17         3.9634  -10.9378   -4.4450 H         1 <0>         0.1770
     45 H18         4.5086   -7.1605   -7.8615 H         1 <0>         0.1213
     46 H19         4.6577   -7.6938  -10.2558 H         1 <0>         0.1243
     47 H20         4.5518  -10.0308  -11.0152 H         1 <0>         0.1272
     48 H21         4.3033  -11.8572   -9.3963 H         1 <0>         0.1223
@<TRIPOS>BOND
     1    1    2 1
     2    1   29 1
     3    1   30 1
     4    1   31 1
     5    2    3 1
     6    2   32 1
     7    2   33 1
     8    3    4 am
     9    3   34 1
    10    4    5 2
    11    4    6 am
    12    6   10 1
    13    6    7 1
    14    7    8 1
    15    7   35 1
    16    7   36 1
    17    8    9 1
    18    8   37 1
    19    8   38 1
    20    9   10 1
    21    9   11 1
    22    9   39 1
    23   10   40 1
    24   10   41 1
    25   11   12 1
    26   11   42 1
    27   12   17 ar
    28   12   13 ar
    29   13   14 ar
    30   14   15 ar
    31   14   43 1
    32   15   16 ar
    33   15   28 1
    34   16   17 ar
    35   16   18 1
    36   18   23 1
    37   18   19 2
    38   19   20 1
    39   19   44 1
    40   20   21 1
    41   20   22 1
    42   22   27 ar
    43   22   23 ar
    44   23   24 ar
    45   24   25 ar
    46   24   45 1
    47   25   26 ar
    48   25   46 1
    49   26   27 ar
    50   26   47 1
    51   27   48 1
@<TRIPOS>MOLECULE
CHEMBL198756
   50    53     0     0     0
SMALL
USER_CHARGES

@<TRIPOS>ATOM
      1 C1         -0.0187    1.5258    0.0104 C.3       1 <0>        -0.1508
      2 C2          0.0021   -0.0041    0.0020 C.3       1 <0>        -0.1380
      3 C3          0.7182   -0.4975   -1.2568 C.3       1 <0>         0.1308
      4 N1          0.7381   -1.9623   -1.2648 N.pl3     1 <0>        -0.6858
      5 C4          1.3368   -2.6406   -2.3124 C.ar      1 <0>         0.5821
      6 N2          1.8918   -1.9476   -3.2967 N.ar      1 <0>        -0.5466
      7 C5          2.4750   -2.5577   -4.3177 C.ar      1 <0>         0.2173
      8 C6          2.5037   -3.9386   -4.3542 C.ar      1 <0>        -0.2813
      9 C7          1.9095   -4.6462   -3.3005 C.ar      1 <0>         0.2600
     10 N3          1.3450   -3.9636   -2.3023 N.ar      1 <0>        -0.5447
     11 C8          1.9128   -6.1201   -3.2923 C.2       1 <0>         0.1149
     12 C9          1.8203   -6.9450   -2.1860 C.2       1 <0>         0.1480
     13 N4          1.8599   -8.2129   -2.6272 N.pl3     1 <0>        -0.4611
     14 C10         1.9691   -8.2231   -3.9328 C.cat     1 <0>         0.3023
     15 N5          2.0028   -6.9558   -4.3880 N.pl3     1 <0>        -0.4054
     16 C11         2.1245   -6.9186   -5.8529 C.3       1 <0>         0.1168
     17 H1          3.1525   -6.6980   -6.1404 H         1 <0>         0.1426
     18 C12         1.7258   -8.3296   -6.3361 C.3       1 <0>        -0.1163
     19 C13         2.0654   -9.1916   -5.0965 C.3       1 <0>        -0.0653
     20 C14         1.1758   -5.8696   -6.4364 C.3       1 <0>         0.0574
     21 O1          1.3899   -5.7649   -7.8453 O.3       1 <0>        -0.5562
     22 C15         1.6998   -6.5104   -0.7748 C.ar      1 <0>        -0.0726
     23 C16         2.5089   -5.4842   -0.2874 C.ar      1 <0>        -0.0161
     24 C17         2.3931   -5.0831    1.0273 C.ar      1 <0>        -0.1526
     25 C18         1.4750   -5.6981    1.8634 C.ar      1 <0>         0.1420
     26 C19         0.6693   -6.7184    1.3839 C.ar      1 <0>        -0.1514
     27 C20         0.7731   -7.1221    0.0689 C.ar      1 <0>        -0.0566
     28 F1          1.3655   -5.3021    3.1504 F         1 <0>        -0.1235
     29 H2          1.0039    1.9031    0.0027 H         1 <0>         0.0603
     30 H3         -0.5459    1.8868   -0.8726 H         1 <0>         0.0600
     31 H4         -0.5289    1.8773    0.9072 H         1 <0>         0.0649
     32 H5          0.5293   -0.3651    0.8851 H         1 <0>         0.0705
     33 H6         -1.0205   -0.3814    0.0098 H         1 <0>         0.0702
     34 H7          0.1910   -0.1364   -2.1398 H         1 <0>         0.0736
     35 H8          1.7408   -0.1202   -1.2645 H         1 <0>         0.0744
     36 H9          0.3316   -2.4569   -0.5361 H         1 <0>         0.4170
     37 H10         2.9233   -1.9815   -5.1136 H         1 <0>         0.1819
     38 H11         2.9727   -4.4603   -5.1754 H         1 <0>         0.1462
     39 H12         0.6623   -8.3755   -6.5707 H         1 <0>         0.1105
     40 H13         2.3264   -8.6324   -7.1938 H         1 <0>         0.1363
     41 H14         3.0730   -9.6007   -5.1698 H         1 <0>         0.1405
     42 H15         1.3346   -9.9929   -4.9871 H         1 <0>         0.1347
     43 H16         0.1444   -6.1669   -6.2467 H         1 <0>         0.0649
     44 H17         1.3679   -4.9048   -5.9670 H         1 <0>         0.0716
     45 H18         0.8211   -5.1165   -8.2825 H         1 <0>         0.4042
     46 H19         3.2252   -5.0047   -0.9381 H         1 <0>         0.1302
     47 H20         3.0191   -4.2885    1.4057 H         1 <0>         0.1476
     48 H21        -0.0445   -7.1950    2.0395 H         1 <0>         0.1506
     49 H22         0.1413   -7.9141   -0.3052 H         1 <0>         0.1367
     50 H23         1.8147   -9.0017   -2.0644 H         1 <0>         0.4635
@<TRIPOS>BOND
     1    1    2 1
     2    1   29 1
     3    1   30 1
     4    1   31 1
     5    2    3 1
     6    2   32 1
     7    2   33 1
     8    3    4 1
     9    3   34 1
    10    3   35 1
    11    4    5 1
    12    4   36 1
    13    5   10 ar
    14    5    6 ar
    15    6    7 ar
    16    7    8 ar
    17    7   37 1
    18    8    9 ar
    19    8   38 1
    20    9   10 ar
    21    9   11 1
    22   11   15 1
    23   11   12 2
    24   12   13 1
    25   12   22 1
    26   13   14 2
    27   13   50 1
    28   14   19 1
    29   14   15 1
    30   15   16 1
    31   16   17 1
    32   16   18 1
    33   16   20 1
    34   18   19 1
    35   18   39 1
    36   18   40 1
    37   19   41 1
    38   19   42 1
    39   20   21 1
    40   20   43 1
    41   20   44 1
    42   21   45 1
    43   22   27 ar
    44   22   23 ar
    45   23   24 ar
    46   23   46 1
    47   24   25 ar
    48   24   47 1
    49   25   26 ar
    50   25   28 1
    51   26   27 ar
    52   26   48 1
    53   27   49 1
@<TRIPOS>MOLECULE
CHEMBL198756__1
   49    52     0     0     0
SMALL
USER_CHARGES

@<TRIPOS>ATOM
      1 C1         -0.0187    1.5258    0.0104 C.3       1 <0>        -0.1485
      2 C2          0.0021   -0.0041    0.0020 C.3       1 <0>        -0.1385
      3 C3         -1.4333   -0.5336    0.0129 C.3       1 <0>         0.1368
      4 N1         -1.4134   -1.9985    0.0048 N.pl3     1 <0>        -0.6955
      5 C4         -2.6026   -2.7068    0.0124 C.ar      1 <0>         0.5743
      6 N2         -3.7496   -2.0424    0.0215 N.ar      1 <0>        -0.5686
      7 C5         -4.9097   -2.6817    0.0289 C.ar      1 <0>         0.2027
      8 C6         -4.9210   -4.0634    0.0271 C.ar      1 <0>        -0.2962
      9 C7         -3.6940   -4.7404    0.0174 C.ar      1 <0>         0.2973
     10 N3         -2.5648   -4.0293    0.0049 N.ar      1 <0>        -0.5503
     11 C8         -3.6515   -6.2137    0.0156 C.2       1 <0>         0.0209
     12 C9         -2.6267   -7.0149   -0.4545 C.2       1 <0>         0.1204
     13 N4         -2.9967   -8.2917   -0.2637 N.2       1 <0>        -0.4675
     14 C10        -4.1815   -8.3297    0.2945 C.2       1 <0>         0.2245
     15 N5         -4.6242   -7.0725    0.4884 N.pl3     1 <0>        -0.4576
     16 C11        -5.9543   -7.0665    1.1153 C.3       1 <0>         0.1307
     17 H1         -6.7225   -6.8678    0.3680 H         1 <0>         0.1108
     18 C12        -6.1380   -8.4804    1.7071 C.3       1 <0>        -0.1171
     19 C13        -5.2128   -9.3227    0.7963 C.3       1 <0>        -0.0465
     20 C14        -6.0117   -6.0147    2.2249 C.3       1 <0>         0.0594
     21 O1         -7.3413   -5.9415    2.7435 O.3       1 <0>        -0.5629
     22 C15        -1.3556   -6.5503   -1.0572 C.ar      1 <0>        -0.0125
     23 C16        -1.3338   -5.3977   -1.8422 C.ar      1 <0>        -0.0334
     24 C17        -0.1478   -4.9691   -2.4013 C.ar      1 <0>        -0.1607
     25 C18         1.0205   -5.6820   -2.1844 C.ar      1 <0>         0.1047
     26 C19         1.0038   -6.8279   -1.4055 C.ar      1 <0>        -0.1596
     27 C20        -0.1760   -7.2608   -0.8367 C.ar      1 <0>        -0.0570
     28 F1          2.1796   -5.2585   -2.7344 F         1 <0>        -0.1406
     29 H2          1.0039    1.9031    0.0027 H         1 <0>         0.0614
     30 H3         -0.5459    1.8868   -0.8726 H         1 <0>         0.0585
     31 H4         -0.5289    1.8773    0.9072 H         1 <0>         0.0581
     32 H5          0.5123   -0.3556   -0.8948 H         1 <0>         0.0699
     33 H6          0.5293   -0.3651    0.8851 H         1 <0>         0.0690
     34 H7         -1.9435   -0.1821    0.9097 H         1 <0>         0.0674
     35 H8         -1.9605   -0.1726   -0.8702 H         1 <0>         0.0685
     36 H9         -0.5669   -2.4720   -0.0058 H         1 <0>         0.4149
     37 H10        -5.8373   -2.1286    0.0366 H         1 <0>         0.1701
     38 H11        -5.8532   -4.6086    0.0334 H         1 <0>         0.1393
     39 H12        -5.8085   -8.5145    2.7455 H         1 <0>         0.0920
     40 H13        -7.1731   -8.8097    1.6168 H         1 <0>         0.1102
     41 H14        -5.7695   -9.7488   -0.0384 H         1 <0>         0.1058
     42 H15        -4.7327  -10.1102    1.3772 H         1 <0>         0.1054
     43 H16        -5.3247   -6.2921    3.0244 H         1 <0>         0.0562
     44 H17        -5.7255   -5.0438    1.8205 H         1 <0>         0.0652
     45 H18        -7.4518   -5.2932    3.4525 H         1 <0>         0.3914
     46 H19        -2.2440   -4.8419   -2.0124 H         1 <0>         0.1215
     47 H20        -0.1298   -4.0767   -3.0094 H         1 <0>         0.1322
     48 H21         1.9169   -7.3804   -1.2396 H         1 <0>         0.1369
     49 H22        -0.1871   -8.1514   -0.2258 H         1 <0>         0.1364
@<TRIPOS>BOND
     1    1    2 1
     2    1   29 1
     3    1   30 1
     4    1   31 1
     5    2    3 1
     6    2   32 1
     7    2   33 1
     8    3    4 1
     9    3   34 1
    10    3   35 1
    11    4    5 1
    12    4   36 1
    13    5   10 ar
    14    5    6 ar
    15    6    7 ar
    16    7    8 ar
    17    7   37 1
    18    8    9 ar
    19    8   38 1
    20    9   10 ar
    21    9   11 1
    22   11   15 1
    23   11   12 2
    24   12   13 1
    25   12   22 1
    26   13   14 2
    27   14   19 1
    28   14   15 1
    29   15   16 1
    30   16   17 1
    31   16   18 1
    32   16   20 1
    33   18   19 1
    34   18   39 1
    35   18   40 1
    36   19   41 1
    37   19   42 1
    38   20   21 1
    39   20   43 1
    40   20   44 1
    41   21   45 1
    42   22   27 ar
    43   22   23 ar
    44   23   24 ar
    45   23   46 1
    46   24   25 ar
    47   24   47 1
    48   25   26 ar
    49   25   28 1
    50   26   27 ar
    51   26   48 1
    52   27   49 1
@<TRIPOS>MOLECULE
CHEMBL561540
   51    55     0     0     0
SMALL
USER_CHARGES

@<TRIPOS>ATOM
      1 C1         -0.0167    1.3797    0.0096 C.ar      1 <0>        -0.1155
      2 C2          1.1681    2.0947    0.0022 C.ar      1 <0>        -0.1209
      3 C3          2.3774    1.4320   -0.0134 C.ar      1 <0>        -0.1042
      4 C4          2.4044    0.0346   -0.0212 C.ar      1 <0>        -0.0639
      5 C5          1.2037   -0.6807   -0.0131 C.ar      1 <0>        -0.1086
      6 C6          0.0021   -0.0041    0.0020 C.ar      1 <0>        -0.1195
      7 C7          3.6922   -0.6809   -0.0383 C.2       1 <0>        -0.0866
      8 C8          3.7143   -2.0250   -0.0458 C.2       1 <0>        -0.1208
      9 C9          5.0001   -2.7393   -0.0629 C.ar      1 <0>         0.0352
     10 C10         6.2031   -2.0267   -0.0657 C.ar      1 <0>        -0.1444
     11 C11         7.4036   -2.7060   -0.0818 C.ar      1 <0>        -0.0554
     12 C12         7.4354   -4.0886   -0.0958 C.ar      1 <0>        -0.1450
     13 C13         6.2540   -4.8220   -0.0934 C.ar      1 <0>         0.1823
     14 C14         5.0306   -4.1431   -0.0708 C.ar      1 <0>        -0.1077
     15 C15         3.9741   -5.1785   -0.0659 C.2       1 <0>         0.1239
     16 N1          2.6833   -4.9967   -0.0517 N.2       1 <0>        -0.2437
     17 O1          1.8112   -6.1123   -0.0491 O.3       1 <0>        -0.3674
     18 C16         4.7068   -6.4711   -0.0807 C.2       1 <0>         0.5369
     19 O2          4.2067   -7.5789   -0.0825 O.2       1 <0>        -0.4370
     20 N2          6.0219   -6.1946   -0.1059 N.am      1 <0>        -0.5444
     21 C17         7.0781   -7.2097   -0.1253 C.3       1 <0>         0.1662
     22 C18         7.4520   -7.5727    1.2887 C.ar      1 <0>        -0.1212
     23 C19         8.5773   -7.0201    1.8688 C.ar      1 <0>        -0.0961
     24 C20         8.9215   -7.3539    3.1675 C.ar      1 <0>         0.0687
     25 C21         8.1391   -8.2423    3.8852 C.ar      1 <0>        -0.0984
     26 C22         7.0128   -8.7971    3.3071 C.ar      1 <0>        -0.1793
     27 C23         6.6624   -8.4576    2.0096 C.ar      1 <0>         0.1461
     28 O3          5.5488   -8.9856    1.4339 O.3       1 <0>        -0.2992
     29 C24         4.9829  -10.1403    2.0605 C.3       1 <0>         0.2220
     30 O4          4.8874   -9.8960    3.4689 O.3       1 <0>        -0.3809
     31 C25         6.1703   -9.7668    4.0967 C.3       1 <0>         0.1001
     32 F1         10.0219   -6.8127    3.7346 F         1 <0>        -0.1348
     33 H1         -0.9607    1.9041    0.0260 H         1 <0>         0.1229
     34 H2          1.1456    3.1745    0.0082 H         1 <0>         0.1246
     35 H3          3.3013    1.9913   -0.0200 H         1 <0>         0.1256
     36 H4          1.2168   -1.7606   -0.0194 H         1 <0>         0.1263
     37 H5         -0.9266   -0.5554    0.0083 H         1 <0>         0.1240
     38 H6          4.6184   -0.1255   -0.0449 H         1 <0>         0.1273
     39 H7          2.7881   -2.5804   -0.0392 H         1 <0>         0.1340
     40 H8          6.1924   -0.9468   -0.0556 H         1 <0>         0.1381
     41 H9          8.3303   -2.1512   -0.0839 H         1 <0>         0.1392
     42 H10         8.3851   -4.6027   -0.1091 H         1 <0>         0.1321
     43 H11         0.8731   -5.8781   -0.0382 H         1 <0>         0.4093
     44 H12         6.7190   -8.0977   -0.6456 H         1 <0>         0.1090
     45 H13         7.9525   -6.8144   -0.6423 H         1 <0>         0.1034
     46 H14         9.1888   -6.3279    1.3090 H         1 <0>         0.1459
     47 H15         8.4093   -8.5025    4.8979 H         1 <0>         0.1441
     48 H16         3.9892  -10.3274    1.6535 H         1 <0>         0.1455
     49 H17         5.6229  -11.0043    1.8816 H         1 <0>         0.0646
     50 H18         6.6688  -10.7354    4.1339 H         1 <0>         0.0804
     51 H19         6.0330   -9.3884    5.1097 H         1 <0>         0.1172
@<TRIPOS>BOND
     1    1    6 ar
     2    1    2 ar
     3    1   33 1
     4    2    3 ar
     5    2   34 1
     6    3    4 ar
     7    3   35 1
     8    4    5 ar
     9    4    7 1
    10    5    6 ar
    11    5   36 1
    12    6   37 1
    13    7    8 2
    14    7   38 1
    15    8    9 1
    16    8   39 1
    17    9   14 ar
    18    9   10 ar
    19   10   11 ar
    20   10   40 1
    21   11   12 ar
    22   11   41 1
    23   12   13 ar
    24   12   42 1
    25   13   20 1
    26   13   14 ar
    27   14   15 1
    28   15   16 2
    29   15   18 1
    30   16   17 1
    31   17   43 1
    32   18   19 2
    33   18   20 am
    34   20   21 1
    35   21   22 1
    36   21   44 1
    37   21   45 1
    38   22   27 ar
    39   22   23 ar
    40   23   24 ar
    41   23   46 1
    42   24   25 ar
    43   24   32 1
    44   25   26 ar
    45   25   47 1
    46   26   31 1
    47   26   27 ar
    48   27   28 1
    49   28   29 1
    50   29   30 1
    51   29   48 1
    52   29   49 1
    53   30   31 1
    54   31   50 1
    55   31   51 1
@<TRIPOS>MOLECULE
CHEMBL207536
   33    36     0     0     0
SMALL
USER_CHARGES

@<TRIPOS>ATOM
      1 C1         -0.0178    1.4608    0.0101 C.3       1 <0>         0.0831
      2 N1          0.0021   -0.0041    0.0020 N.pl3     1 <0>        -0.2946
      3 C2          0.0078   -0.7513   -1.0598 C.cat     1 <0>         0.4303
      4 N2          0.0068   -0.4496   -2.4128 N.pl3     1 <0>        -0.2487
      5 O1          0.2310    0.8786   -2.8496 O.3       1 <0>        -0.5818
      6 C3         -0.2161   -1.4646   -3.3366 C.ar      1 <0>         0.2098
      7 C4         -0.4527   -1.1064   -4.6648 C.ar      1 <0>        -0.1055
      8 C5         -0.6755   -2.0753   -5.6166 C.ar      1 <0>        -0.0543
      9 C6         -0.6670   -3.4201   -5.2714 C.ar      1 <0>        -0.0652
     10 C7         -0.4371   -3.7973   -3.9671 C.ar      1 <0>        -0.0271
     11 C8         -0.2120   -2.8229   -2.9893 C.ar      1 <0>        -0.1923
     12 C9          0.0254   -3.2503   -1.5878 C.2       1 <0>         0.4809
     13 O2          0.2103   -4.4135   -1.2799 O.2       1 <0>        -0.4386
     14 C10         0.0202   -2.1586   -0.5973 C.2       1 <0>        -0.2801
     15 C11         0.0225   -2.1272    0.7535 C.2       1 <0>         0.2466
     16 N3          0.0239   -0.8192    1.1339 N.am      1 <0>        -0.3453
     17 C12         0.0274   -0.4612    2.4345 C.2       1 <0>         0.7280
     18 O3         -0.1783    0.6920    2.7571 O.2       1 <0>        -0.5143
     19 N4          0.2619   -1.4011    3.3704 N.am      1 <0>        -0.7086
     20 C13         0.7211   -2.7458    3.0326 C.3       1 <0>         0.0975
     21 C14         0.0260   -3.2531    1.7587 C.3       1 <0>        -0.0901
     22 Cl1        -0.9472   -4.6281   -6.4862 Cl        1 <0>        -0.0556
     23 H1          1.0048    1.8381    0.0023 H         1 <0>         0.0904
     24 H2         -0.5450    1.8219   -0.8730 H         1 <0>         0.1325
     25 H3         -0.5280    1.8123    0.9069 H         1 <0>         0.1100
     26 H4         -0.4615   -0.0639   -4.9468 H         1 <0>         0.1616
     27 H5         -0.8589   -1.7870   -6.6411 H         1 <0>         0.1488
     28 H6         -0.4310   -4.8437   -3.6996 H         1 <0>         0.1546
     29 H7          0.1208   -1.1765    4.3034 H         1 <0>         0.4371
     30 H8          1.7997   -2.7275    2.8764 H         1 <0>         0.0902
     31 H9          0.4906   -3.4209    3.8568 H         1 <0>         0.1227
     32 H10        -0.9985   -3.5528    1.9796 H         1 <0>         0.1306
     33 H11         0.5807   -4.1020    1.3590 H         1 <0>         0.1474
@<TRIPOS>BOND
     1    1    2 1
     2    1   23 1
     3    1   24 1
     4    1   25 1
     5    2   16 1
     6    2    3 2
     7    3   14 1
     8    3    4 1
     9    4    5 1
    10    4    6 1
    11    6   11 ar
    12    6    7 ar
    13    7    8 ar
    14    7   26 1
    15    8    9 ar
    16    8   27 1
    17    9   10 ar
    18    9   22 1
    19   10   11 ar
    20   10   28 1
    21   11   12 1
    22   12   13 2
    23   12   14 1
    24   14   15 2
    25   15   21 1
    26   15   16 1
    27   16   17 am
    28   17   18 2
    29   17   19 am
    30   19   20 1
    31   19   29 1
    32   20   21 1
    33   20   30 1
    34   20   31 1
    35   21   32 1
    36   21   33 1
@<TRIPOS>MOLECULE
CHEMBL406703
   43    46     0     0     0
SMALL
USER_CHARGES

@<TRIPOS>ATOM
      1 C1         -0.0164    1.3570    0.0095 C.ar      1 <0>        -0.1097
      2 C2          1.1559    2.1003    0.0023 C.ar      1 <0>        -0.0863
      3 C3          2.3751    1.4492   -0.0129 C.ar      1 <0>        -0.0669
      4 C4          2.4044    0.0758   -0.0205 C.ar      1 <0>        -0.1595
      5 C5          1.2262   -0.7047   -0.0135 C.ar      1 <0>         0.0749
      6 C6          0.0021   -0.0041    0.0020 C.ar      1 <0>        -0.0508
      7 N1          1.4635   -2.0326   -0.0233 N.2       1 <0>        -0.4799
      8 C7          2.6693   -2.5212   -0.0378 C.2       1 <0>         0.0880
      9 S1          3.6694   -1.1675   -0.0399 S.3       1 <0>         0.1164
     10 C8          3.0782   -3.9717   -0.0496 C.3       1 <0>         0.1565
     11 C9          3.8910   -4.2620    1.1428 C.1       1 <0>         0.2041
     12 N2          4.5183   -4.4861    2.0630 N.1       1 <0>        -0.3733
     13 C10         3.8860   -4.2558   -1.2896 C.ar      1 <0>         0.2210
     14 C11         5.2515   -4.0173   -1.3072 C.ar      1 <0>        -0.2759
     15 C12         5.9572   -4.2928   -2.4677 C.ar      1 <0>         0.2083
     16 N3          5.3109   -4.7722   -3.5176 N.ar      1 <0>        -0.5564
     17 C13         4.0049   -4.9889   -3.4680 C.ar      1 <0>         0.5739
     18 N4          3.3018   -4.7409   -2.3725 N.ar      1 <0>        -0.5498
     19 N5          3.3603   -5.4907   -4.5852 N.pl3     1 <0>        -0.6957
     20 C14         4.1218   -5.7758   -5.8039 C.3       1 <0>         0.1424
     21 C15         3.1783   -6.3170   -6.8799 C.3       1 <0>        -0.0889
     22 C16         3.9617   -6.6102   -8.1335 C.ar      1 <0>        -0.1353
     23 C17         4.1319   -5.6308   -9.1003 C.ar      1 <0>        -0.0687
     24 C18         4.8598   -5.9455  -10.2373 C.ar      1 <0>        -0.1698
     25 C19         5.3881   -7.2161  -10.3686 C.ar      1 <0>         0.0981
     26 N6          5.2058   -8.1227   -9.4288 N.ar      1 <0>        -0.4829
     27 C20         4.5242   -7.8568   -8.3315 C.ar      1 <0>         0.1064
     28 H1         -0.9661    1.8710    0.0259 H         1 <0>         0.1384
     29 H2          1.1157    3.1795    0.0081 H         1 <0>         0.1422
     30 H3          3.2953    2.0145   -0.0190 H         1 <0>         0.1377
     31 H4         -0.9285   -0.5522    0.0083 H         1 <0>         0.1372
     32 H5          2.1877   -4.6002   -0.0441 H         1 <0>         0.1693
     33 H6          5.7544   -3.6251   -0.4356 H         1 <0>         0.1447
     34 H7          7.0219   -4.1179   -2.5143 H         1 <0>         0.1764
     35 H8          2.4044   -5.6537   -4.5614 H         1 <0>         0.4166
     36 H9          4.5927   -4.8598   -6.1607 H         1 <0>         0.0710
     37 H10         4.8897   -6.5184   -5.5871 H         1 <0>         0.0727
     38 H11         2.7075   -7.2330   -6.5231 H         1 <0>         0.0859
     39 H12         2.4104   -5.5744   -7.0967 H         1 <0>         0.0837
     40 H13         3.7071   -4.6464   -8.9708 H         1 <0>         0.1348
     41 H14         5.0120   -5.2074  -11.0109 H         1 <0>         0.1369
     42 H15         5.9565   -7.4693  -11.2514 H         1 <0>         0.1570
     43 H16         4.4003   -8.6235   -7.5810 H         1 <0>         0.1552
@<TRIPOS>BOND
     1    1    6 ar
     2    1    2 ar
     3    1   28 1
     4    2    3 ar
     5    2   29 1
     6    3    4 ar
     7    3   30 1
     8    4    9 1
     9    4    5 ar
    10    5    6 ar
    11    5    7 1
    12    6   31 1
    13    7    8 2
    14    8    9 1
    15    8   10 1
    16   10   11 1
    17   10   13 1
    18   10   32 1
    19   11   12 3
    20   13   18 ar
    21   13   14 ar
    22   14   15 ar
    23   14   33 1
    24   15   16 ar
    25   15   34 1
    26   16   17 ar
    27   17   18 ar
    28   17   19 1
    29   19   20 1
    30   19   35 1
    31   20   21 1
    32   20   36 1
    33   20   37 1
    34   21   22 1
    35   21   38 1
    36   21   39 1
    37   22   27 ar
    38   22   23 ar
    39   23   24 ar
    40   23   40 1
    41   24   25 ar
    42   24   41 1
    43   25   26 ar
    44   25   42 1
    45   26   27 ar
    46   27   43 1
@<TRIPOS>MOLECULE
CHEMBL406703__1
   43    46     0     0     0
SMALL
USER_CHARGES

@<TRIPOS>ATOM
      1 C1         -0.0164    1.3570    0.0095 C.ar      1 <0>        -0.1097
      2 C2          1.1559    2.1003    0.0023 C.ar      1 <0>        -0.0862
      3 C3          2.3751    1.4492   -0.0129 C.ar      1 <0>        -0.0669
      4 C4          2.4044    0.0758   -0.0205 C.ar      1 <0>        -0.1594
      5 C5          1.2262   -0.7047   -0.0135 C.ar      1 <0>         0.0748
      6 C6          0.0021   -0.0041    0.0020 C.ar      1 <0>        -0.0508
      7 N1          1.4635   -2.0326   -0.0233 N.2       1 <0>        -0.4798
      8 C7          2.6693   -2.5212   -0.0378 C.2       1 <0>         0.0876
      9 S1          3.6694   -1.1675   -0.0399 S.3       1 <0>         0.1166
     10 C8          3.0782   -3.9717   -0.0496 C.3       1 <0>         0.1566
     11 C9          3.8673   -4.2492   -1.2608 C.1       1 <0>         0.2043
     12 N2          4.4762   -4.4634   -2.1956 N.1       1 <0>        -0.3735
     13 C10         3.9103   -4.2689    1.1712 C.ar      1 <0>         0.2211
     14 C11         5.2740   -4.0197    1.1683 C.ar      1 <0>        -0.2758
     15 C12         6.0024   -4.3069    2.3117 C.ar      1 <0>         0.2082
     16 N3          5.3786   -4.8073    3.3656 N.ar      1 <0>        -0.5564
     17 C13         4.0736   -5.0338    3.3357 C.ar      1 <0>         0.5738
     18 N4          3.3475   -4.7656    2.2601 N.ar      1 <0>        -0.5497
     19 N5          3.4531   -5.5585    4.4561 N.pl3     1 <0>        -0.6957
     20 C14         4.2386   -5.8567    5.6563 C.3       1 <0>         0.1424
     21 C15         3.3188   -6.4224    6.7402 C.3       1 <0>        -0.0889
     22 C16         4.1267   -6.7291    7.9747 C.ar      1 <0>        -0.1353
     23 C17         4.7092   -7.9766    8.1406 C.ar      1 <0>        -0.0686
     24 C18         5.4436   -8.2139    9.2922 C.ar      1 <0>        -0.1698
     25 C19         5.5700   -7.2065   10.2301 C.ar      1 <0>         0.0981
     26 N6          5.0017   -6.0321   10.0392 N.ar      1 <0>        -0.4829
     27 C20         4.3012   -5.7690    8.9531 C.ar      1 <0>         0.1062
     28 H1         -0.9661    1.8710    0.0259 H         1 <0>         0.1384
     29 H2          1.1157    3.1795    0.0081 H         1 <0>         0.1422
     30 H3          3.2953    2.0145   -0.0190 H         1 <0>         0.1378
     31 H4         -0.9285   -0.5522    0.0083 H         1 <0>         0.1372
     32 H5          2.1877   -4.6002   -0.0441 H         1 <0>         0.1692
     33 H6          5.7583   -3.6110    0.2938 H         1 <0>         0.1447
     34 H7          7.0665   -4.1248    2.3420 H         1 <0>         0.1764
     35 H8          2.4983   -5.7288    4.4467 H         1 <0>         0.4166
     36 H9          5.0082   -6.5895    5.4140 H         1 <0>         0.0715
     37 H10         4.7085   -4.9426    6.0193 H         1 <0>         0.0723
     38 H11         2.5491   -5.6896    6.9824 H         1 <0>         0.0856
     39 H12         2.8488   -7.3364    6.3771 H         1 <0>         0.0840
     40 H13         4.5932   -8.7450    7.3907 H         1 <0>         0.1350
     41 H14         5.9109   -9.1740    9.4546 H         1 <0>         0.1370
     42 H15         6.1404   -7.3834   11.1299 H         1 <0>         0.1569
     43 H16         3.8548   -4.7934    8.8292 H         1 <0>         0.1550
@<TRIPOS>BOND
     1    1    6 ar
     2    1    2 ar
     3    1   28 1
     4    2    3 ar
     5    2   29 1
     6    3    4 ar
     7    3   30 1
     8    4    9 1
     9    4    5 ar
    10    5    6 ar
    11    5    7 1
    12    6   31 1
    13    7    8 2
    14    8    9 1
    15    8   10 1
    16   10   11 1
    17   10   13 1
    18   10   32 1
    19   11   12 3
    20   13   18 ar
    21   13   14 ar
    22   14   15 ar
    23   14   33 1
    24   15   16 ar
    25   15   34 1
    26   16   17 ar
    27   17   18 ar
    28   17   19 1
    29   19   20 1
    30   19   35 1
    31   20   21 1
    32   20   36 1
    33   20   37 1
    34   21   22 1
    35   21   38 1
    36   21   39 1
    37   22   27 ar
    38   22   23 ar
    39   23   24 ar
    40   23   40 1
    41   24   25 ar
    42   24   41 1
    43   25   26 ar
    44   25   42 1
    45   26   27 ar
    46   27   43 1
@<TRIPOS>MOLECULE
CHEMBL248792
   44    47     0     0     0
SMALL
USER_CHARGES

@<TRIPOS>ATOM
      1 C1          1.8395    1.3624    1.3097 C.3       1 <0>        -0.6371
      2 S1          1.4858   -0.3955    1.0352 S.o2      1 <0>         2.5276
      3 O1          2.1887   -1.1897    1.9809 O.2       1 <0>        -1.0263
      4 O2          0.0942   -0.5870    0.8203 O.2       1 <0>        -1.0263
      5 N1          2.1908   -0.7492   -0.4208 N.2       1 <0>        -1.0910
      6 C2          2.1072   -2.0417   -0.9411 C.ar      1 <0>         0.3039
      7 C3          1.4268   -3.0299   -0.2389 C.ar      1 <0>        -0.2576
      8 C4          1.3426   -4.3070   -0.7510 C.ar      1 <0>        -0.0375
      9 C5          1.9404   -4.6072   -1.9743 C.ar      1 <0>        -0.1862
     10 C6          2.6222   -3.6146   -2.6770 C.ar      1 <0>        -0.0534
     11 C7          2.6995   -2.3375   -2.1636 C.ar      1 <0>        -0.1866
     12 C8          1.8515   -5.9806   -2.5271 C.ar      1 <0>        -0.0192
     13 C9          2.4501   -6.2857   -3.7424 C.ar      1 <0>        -0.1135
     14 C10         2.3367   -7.5993   -4.2211 C.ar      1 <0>        -0.0872
     15 C11         1.6234   -8.5553   -3.4553 C.ar      1 <0>         0.1204
     16 C12         1.5104   -9.8709   -3.9359 C.ar      1 <0>        -0.0938
     17 C13         2.0814  -10.2164   -5.1231 C.ar      1 <0>        -0.0962
     18 C14         2.7839   -9.2865   -5.8824 C.ar      1 <0>        -0.1405
     19 C15         2.9187   -7.9838   -5.4489 C.ar      1 <0>         0.1430
     20 N2          3.6230   -7.0574   -6.2138 N.pl3     1 <0>        -0.5755
     21 C16         4.3741   -7.4824   -7.2993 C.2       1 <0>         0.3273
     22 N3          4.6226   -8.7145   -7.6898 N.2       1 <0>        -0.5717
     23 C17         5.3639   -8.9554   -8.7561 C.2       1 <0>         0.2047
     24 C18         5.8521   -7.8812   -9.4226 C.2       1 <0>        -0.2671
     25 S2          5.1832   -6.5480   -8.4414 S.3       1 <0>         0.2492
     26 N4          6.7018   -7.8278  -10.6352 N.pl3     1 <0>         0.0983
     27 O3          7.0560   -8.8523  -11.1708 O.2       1 <0>        -0.1511
     28 O4          7.0410   -6.7599  -11.0891 O.3       1 <0>        -0.1590
     29 N5          1.0673   -8.2019   -2.2910 N.ar      1 <0>        -0.4651
     30 C19         1.1668   -6.9829   -1.8235 C.ar      1 <0>         0.1331
     31 H1          2.9183    1.5161    1.3362 H         1 <0>         0.1163
     32 H2          1.4085    1.9505    0.4996 H         1 <0>         0.1163
     33 H3          1.4043    1.6768    2.2583 H         1 <0>         0.1035
     34 H4          0.9642   -2.7970    0.7089 H         1 <0>         0.1073
     35 H5          0.8142   -5.0745   -0.2050 H         1 <0>         0.1088
     36 H6          3.0860   -3.8450   -3.6247 H         1 <0>         0.1041
     37 H7          3.2240   -1.5673   -2.7094 H         1 <0>         0.1161
     38 H8          2.9867   -5.5341   -4.3024 H         1 <0>         0.1289
     39 H9          0.9700  -10.6096   -3.3625 H         1 <0>         0.1343
     40 H10         1.9873  -11.2309   -5.4814 H         1 <0>         0.1314
     41 H11         3.2276   -9.5870   -6.8201 H         1 <0>         0.1688
     42 H12         3.5882   -6.1149   -5.9873 H         1 <0>         0.4354
     43 H13         5.5722   -9.9637   -9.0821 H         1 <0>         0.1997
     44 H14         0.7069   -6.7421   -0.8764 H         1 <0>         0.1638
@<TRIPOS>BOND
     1    1    2 1
     2    1   31 1
     3    1   32 1
     4    1   33 1
     5    2    3 2
     6    2    4 2
     7    2    5 1
     8    5    6 1
     9    6   11 ar
    10    6    7 ar
    11    7    8 ar
    12    7   34 1
    13    8    9 ar
    14    8   35 1
    15    9   10 ar
    16    9   12 1
    17   10   11 ar
    18   10   36 1
    19   11   37 1
    20   12   30 ar
    21   12   13 ar
    22   13   14 ar
    23   13   38 1
    24   14   19 ar
    25   14   15 ar
    26   15   16 ar
    27   15   29 ar
    28   16   17 ar
    29   16   39 1
    30   17   18 ar
    31   17   40 1
    32   18   19 ar
    33   18   41 1
    34   19   20 1
    35   20   21 1
    36   20   42 1
    37   21   25 1
    38   21   22 2
    39   22   23 1
    40   23   24 2
    41   23   43 1
    42   24   25 1
    43   24   26 1
    44   26   27 2
    45   26   28 1
    46   29   30 ar
    47   30   44 1
@<TRIPOS>MOLECULE
CHEMBL248792__1
   45    48     0     0     0
SMALL
USER_CHARGES

@<TRIPOS>ATOM
      1 C1          1.8395    1.3624    1.3097 C.3       1 <0>        -0.6353
      2 S1          1.4858   -0.3955    1.0352 S.o2      1 <0>         2.5329
      3 O1          2.1887   -1.1897    1.9809 O.2       1 <0>        -1.0192
      4 O2          0.0942   -0.5870    0.8203 O.2       1 <0>        -1.0192
      5 N1          2.1908   -0.7492   -0.4208 N.2       1 <0>        -1.0720
      6 C2          2.1072   -2.0417   -0.9411 C.ar      1 <0>         0.3227
      7 C3          1.4268   -3.0299   -0.2389 C.ar      1 <0>        -0.2513
      8 C4          1.3426   -4.3070   -0.7510 C.ar      1 <0>        -0.0305
      9 C5          1.9404   -4.6072   -1.9743 C.ar      1 <0>        -0.2149
     10 C6          2.6222   -3.6146   -2.6770 C.ar      1 <0>        -0.0420
     11 C7          2.6995   -2.3375   -2.1636 C.ar      1 <0>        -0.1763
     12 C8          1.8515   -5.9806   -2.5271 C.ar      1 <0>        -0.0016
     13 C9          2.4501   -6.2857   -3.7424 C.ar      1 <0>        -0.0282
     14 C10         2.3367   -7.5993   -4.2211 C.ar      1 <0>        -0.0700
     15 C11         1.6234   -8.5553   -3.4553 C.ar      1 <0>         0.1261
     16 C12         1.5104   -9.8709   -3.9359 C.ar      1 <0>        -0.1565
     17 C13         2.0814  -10.2164   -5.1231 C.ar      1 <0>        -0.0250
     18 C14         2.7839   -9.2865   -5.8824 C.ar      1 <0>        -0.1408
     19 C15         2.9187   -7.9838   -5.4489 C.ar      1 <0>         0.1936
     20 N2          3.6230   -7.0574   -6.2138 N.pl3     1 <0>        -0.5876
     21 C16         4.3741   -7.4824   -7.2993 C.2       1 <0>         0.3015
     22 N3          4.6226   -8.7145   -7.6898 N.2       1 <0>        -0.5644
     23 C17         5.3639   -8.9554   -8.7561 C.2       1 <0>         0.1921
     24 C18         5.8521   -7.8812   -9.4226 C.2       1 <0>        -0.2457
     25 S2          5.1832   -6.5480   -8.4414 S.3       1 <0>         0.2955
     26 N4          6.7018   -7.8278  -10.6352 N.pl3     1 <0>         0.0880
     27 O3          7.0560   -8.8523  -11.1708 O.2       1 <0>        -0.1330
     28 O4          7.0410   -6.7599  -11.0891 O.3       1 <0>        -0.1436
     29 N5          1.0673   -8.2019   -2.2910 N.ar      1 <0>        -0.4405
     30 C19         1.1668   -6.9829   -1.8235 C.ar      1 <0>         0.1786
     31 H1          2.9183    1.5161    1.3362 H         1 <0>         0.1203
     32 H2          1.4085    1.9505    0.4996 H         1 <0>         0.1203
     33 H3          1.4043    1.6768    2.2583 H         1 <0>         0.1104
     34 H4          0.9642   -2.7970    0.7089 H         1 <0>         0.1156
     35 H5          0.8142   -5.0745   -0.2050 H         1 <0>         0.1085
     36 H6          3.0860   -3.8450   -3.6247 H         1 <0>         0.1098
     37 H7          3.2240   -1.5673   -2.7094 H         1 <0>         0.1268
     38 H8          2.9867   -5.5341   -4.3024 H         1 <0>         0.1609
     39 H9          0.9700  -10.6096   -3.3625 H         1 <0>         0.1520
     40 H10         1.9873  -11.2309   -5.4814 H         1 <0>         0.1537
     41 H11         3.2276   -9.5870   -6.8201 H         1 <0>         0.1863
     42 H12         3.5882   -6.1149   -5.9873 H         1 <0>         0.4390
     43 H13         5.5722   -9.9637   -9.0821 H         1 <0>         0.2065
     44 H14         0.7069   -6.7421   -0.8764 H         1 <0>         0.2096
     45 H15         0.5822   -8.8668   -1.7778 H         1 <0>         0.4466
@<TRIPOS>BOND
     1    1    2 1
     2    1   31 1
     3    1   32 1
     4    1   33 1
     5    2    3 2
     6    2    4 2
     7    2    5 1
     8    5    6 1
     9    6   11 ar
    10    6    7 ar
    11    7    8 ar
    12    7   34 1
    13    8    9 ar
    14    8   35 1
    15    9   10 ar
    16    9   12 1
    17   10   11 ar
    18   10   36 1
    19   11   37 1
    20   12   30 ar
    21   12   13 ar
    22   13   14 ar
    23   13   38 1
    24   14   19 ar
    25   14   15 ar
    26   15   16 ar
    27   15   29 ar
    28   16   17 ar
    29   16   39 1
    30   17   18 ar
    31   17   40 1
    32   18   19 ar
    33   18   41 1
    34   19   20 1
    35   20   21 1
    36   20   42 1
    37   21   25 1
    38   21   22 2
    39   22   23 1
    40   23   24 2
    41   23   43 1
    42   24   25 1
    43   24   26 1
    44   26   27 2
    45   26   28 1
    46   29   30 ar
    47   29   45 1
    48   30   44 1
@<TRIPOS>MOLECULE
CHEMBL380724
   43    46     0     0     0
SMALL
USER_CHARGES

@<TRIPOS>ATOM
      1 C1          7.1791    1.4410    0.4882 C.ar      1 <0>        -0.1396
      2 C2          6.1997    1.9729   -0.3306 C.ar      1 <0>        -0.1000
      3 C3          5.0207    1.2840   -0.5367 C.ar      1 <0>        -0.1524
      4 C4          4.8193    0.0552    0.0791 C.ar      1 <0>         0.1629
      5 C5          5.8053   -0.4764    0.9006 C.ar      1 <0>        -0.1141
      6 C6          6.9818    0.2180    1.1028 C.ar      1 <0>        -0.1011
      7 N1          3.6271   -0.6444   -0.1269 N.pl3     1 <0>        -0.6651
      8 C7          3.6439   -2.0314   -0.2324 C.ar      1 <0>         0.3953
      9 C8          2.4449   -2.7293   -0.3137 C.ar      1 <0>        -0.2089
     10 C9          2.4786   -4.1190   -0.4190 C.ar      1 <0>         0.0321
     11 C10         3.7265   -4.7523   -0.4381 C.ar      1 <0>        -0.2082
     12 C11         4.8700   -3.9873   -0.3530 C.ar      1 <0>         0.1500
     13 N2          4.8024   -2.6724   -0.2597 N.ar      1 <0>        -0.5225
     14 C12         1.2237   -4.9066   -0.5079 C.ar      1 <0>         0.0206
     15 C13        -0.0238   -4.2732   -0.4941 C.ar      1 <0>        -0.1857
     16 C14        -1.1674   -5.0386   -0.5791 C.ar      1 <0>         0.1389
     17 N3         -1.0993   -6.3533   -0.6722 N.ar      1 <0>        -0.4743
     18 C15         0.0588   -6.9946   -0.6889 C.ar      1 <0>         0.3650
     19 C16         1.2573   -6.2967   -0.6132 C.ar      1 <0>        -0.1867
     20 N4          0.0756   -8.3841   -0.7887 N.am      1 <0>        -0.6545
     21 C17        -1.0743   -9.0597   -0.9832 C.2       1 <0>         0.5986
     22 O1         -2.1372   -8.4670   -0.9746 O.2       1 <0>        -0.4468
     23 C18        -1.0446  -10.5085   -1.2053 C.2       1 <0>        -0.0892
     24 C19        -2.1295  -11.3099   -1.4198 C.2       1 <0>        -0.1086
     25 C20        -1.6408  -12.6155   -1.5823 C.2       1 <0>        -0.2247
     26 C21        -0.2962  -12.5549   -1.4614 C.2       1 <0>         0.0015
     27 O2          0.0596  -11.2829   -1.2393 O.3       1 <0>        -0.1669
     28 H1          8.1019    1.9799    0.6444 H         1 <0>         0.1215
     29 H2          6.3570    2.9282   -0.8090 H         1 <0>         0.1241
     30 H3          4.2560    1.7003   -1.1757 H         1 <0>         0.1219
     31 H4          5.6519   -1.4315    1.3809 H         1 <0>         0.1283
     32 H5          7.7487   -0.1945    1.7417 H         1 <0>         0.1232
     33 H6          2.7879   -0.1629   -0.1964 H         1 <0>         0.4182
     34 H7          1.5018   -2.2033   -0.2952 H         1 <0>         0.1382
     35 H8          3.7927   -5.8273   -0.5183 H         1 <0>         0.1373
     36 H9          5.8357   -4.4707   -0.3670 H         1 <0>         0.1624
     37 H10        -0.0901   -3.1979   -0.4175 H         1 <0>         0.1406
     38 H11        -2.1331   -4.5553   -0.5690 H         1 <0>         0.1658
     39 H12         2.2004   -6.8227   -0.6316 H         1 <0>         0.1425
     40 H13         0.9149   -8.8653   -0.7182 H         1 <0>         0.4231
     41 H14        -3.1632  -10.9992   -1.4569 H         1 <0>         0.1632
     42 H15        -2.2289  -13.5021   -1.7685 H         1 <0>         0.1603
     43 H16         0.3803  -13.3935   -1.5351 H         1 <0>         0.2138
@<TRIPOS>BOND
     1    1    6 ar
     2    1    2 ar
     3    1   28 1
     4    2    3 ar
     5    2   29 1
     6    3    4 ar
     7    3   30 1
     8    4    5 ar
     9    4    7 1
    10    5    6 ar
    11    5   31 1
    12    6   32 1
    13    7    8 1
    14    7   33 1
    15    8   13 ar
    16    8    9 ar
    17    9   10 ar
    18    9   34 1
    19   10   11 ar
    20   10   14 1
    21   11   12 ar
    22   11   35 1
    23   12   13 ar
    24   12   36 1
    25   14   19 ar
    26   14   15 ar
    27   15   16 ar
    28   15   37 1
    29   16   17 ar
    30   16   38 1
    31   17   18 ar
    32   18   19 ar
    33   18   20 1
    34   19   39 1
    35   20   21 am
    36   20   40 1
    37   21   22 2
    38   21   23 1
    39   23   27 1
    40   23   24 2
    41   24   25 1
    42   24   41 1
    43   25   26 2
    44   25   42 1
    45   26   27 1
    46   26   43 1
@<TRIPOS>MOLECULE
CHEMBL383678
   56    59     0     0     0
SMALL
USER_CHARGES

@<TRIPOS>ATOM
      1 C1         -1.0350   -7.3875   -3.3811 C.3       1 <0>        -0.1717
      2 C2         -0.5047   -6.3648   -2.4097 C.2       1 <0>         0.5013
      3 O1         -0.6990   -6.5002   -1.2202 O.2       1 <0>        -0.5015
      4 N1          0.1856   -5.2995   -2.8627 N.am      1 <0>        -0.6099
      5 C3          0.3182   -5.0516   -4.3048 C.3       1 <0>         0.1079
      6 C4          1.8046   -4.9043   -4.6452 C.3       1 <0>        -0.1399
      7 C5          2.4210   -3.8176   -3.7613 C.3       1 <0>        -0.1180
      8 C6          2.3002   -4.2243   -2.2908 C.3       1 <0>        -0.1228
      9 C7          0.8147   -4.3607   -1.9237 C.3       1 <0>         0.1327
     10 C8          0.6862   -4.8896   -0.5184 C.2       1 <0>         0.5145
     11 O2          1.0259   -6.0258   -0.2646 O.2       1 <0>        -0.4316
     12 N2          0.1937   -4.0998    0.4564 N.am      1 <0>        -0.6632
     13 C9         -0.0206   -4.6189    1.7326 C.ar      1 <0>         0.3766
     14 C10        -0.6324   -3.8326    2.7000 C.ar      1 <0>        -0.1950
     15 C11        -0.8397   -4.3661    3.9718 C.ar      1 <0>         0.0169
     16 C12        -0.4190   -5.6778    4.2167 C.ar      1 <0>        -0.1924
     17 C13         0.1809   -6.3919    3.2011 C.ar      1 <0>         0.1377
     18 N3          0.3566   -5.8576    2.0073 N.ar      1 <0>        -0.4631
     19 C14        -1.4892   -3.5632    5.0379 C.ar      1 <0>         0.0355
     20 C15        -1.9148   -2.2530    4.7912 C.ar      1 <0>        -0.2082
     21 C16        -2.5145   -1.5386    5.8062 C.ar      1 <0>         0.1483
     22 N4         -2.6908   -2.0723    7.0004 N.ar      1 <0>        -0.5232
     23 C17        -2.3041   -3.3080    7.2787 C.ar      1 <0>         0.3937
     24 C18        -1.6964   -4.0965    6.3092 C.ar      1 <0>        -0.2092
     25 N5         -2.5127   -3.8237    8.5538 N.pl3     1 <0>        -0.6635
     26 C19        -3.2464   -3.0923    9.4919 C.ar      1 <0>         0.1649
     27 C20        -4.2971   -2.2838    9.0770 C.ar      1 <0>        -0.1185
     28 C21        -5.0204   -1.5629   10.0067 C.ar      1 <0>        -0.1000
     29 C22        -4.6997   -1.6452   11.3493 C.ar      1 <0>        -0.1428
     30 C23        -3.6544   -2.4491   11.7658 C.ar      1 <0>        -0.0987
     31 C24        -2.9304   -3.1768   10.8420 C.ar      1 <0>        -0.1564
     32 H1         -2.0480   -7.1158   -3.6779 H         1 <0>         0.0922
     33 H2         -0.3942   -7.4182   -4.2623 H         1 <0>         0.0813
     34 H3         -1.0464   -8.3684   -2.9058 H         1 <0>         0.0936
     35 H4         -0.1024   -5.8900   -4.8599 H         1 <0>         0.0943
     36 H5         -0.2095   -4.1349   -4.5680 H         1 <0>         0.0728
     37 H6          2.3143   -5.8511   -4.4665 H         1 <0>         0.0709
     38 H7          1.9118   -4.6250   -5.6933 H         1 <0>         0.0802
     39 H8          3.4729   -3.6937   -4.0185 H         1 <0>         0.0737
     40 H9          1.8947   -2.8768   -3.9222 H         1 <0>         0.0680
     41 H10         2.8052   -5.1775   -2.1343 H         1 <0>         0.0798
     42 H11         2.7602   -3.4610   -1.6633 H         1 <0>         0.0792
     43 H12         0.3267   -3.3888   -1.9967 H         1 <0>         0.0880
     44 H13        -0.0118   -3.1703    0.2701 H         1 <0>         0.4126
     45 H14        -0.9425   -2.8237    2.4712 H         1 <0>         0.1383
     46 H15        -0.5621   -6.1253    5.1892 H         1 <0>         0.1370
     47 H16         0.5077   -7.4048    3.3841 H         1 <0>         0.1610
     48 H17        -1.7748   -1.8069    3.8177 H         1 <0>         0.1367
     49 H18        -2.8446   -0.5270    5.6217 H         1 <0>         0.1620
     50 H19        -1.3863   -5.1055    6.5379 H         1 <0>         0.1379
     51 H20        -2.1490   -4.6908    8.7917 H         1 <0>         0.4182
     52 H21        -4.5478   -2.2188    8.0285 H         1 <0>         0.1329
     53 H22        -5.8371   -0.9338    9.6847 H         1 <0>         0.1228
     54 H23        -5.2667   -1.0800   12.0743 H         1 <0>         0.1209
     55 H24        -3.4067   -2.5111   12.8152 H         1 <0>         0.1237
     56 H25        -2.1169   -3.8076   11.1684 H         1 <0>         0.1216
@<TRIPOS>BOND
     1    1    2 1
     2    1   32 1
     3    1   33 1
     4    1   34 1
     5    2    3 2
     6    2    4 am
     7    4    9 1
     8    4    5 1
     9    5    6 1
    10    5   35 1
    11    5   36 1
    12    6    7 1
    13    6   37 1
    14    6   38 1
    15    7    8 1
    16    7   39 1
    17    7   40 1
    18    8    9 1
    19    8   41 1
    20    8   42 1
    21    9   10 1
    22    9   43 1
    23   10   11 2
    24   10   12 am
    25   12   13 1
    26   12   44 1
    27   13   18 ar
    28   13   14 ar
    29   14   15 ar
    30   14   45 1
    31   15   16 ar
    32   15   19 1
    33   16   17 ar
    34   16   46 1
    35   17   18 ar
    36   17   47 1
    37   19   24 ar
    38   19   20 ar
    39   20   21 ar
    40   20   48 1
    41   21   22 ar
    42   21   49 1
    43   22   23 ar
    44   23   24 ar
    45   23   25 1
    46   24   50 1
    47   25   26 1
    48   25   51 1
    49   26   31 ar
    50   26   27 ar
    51   27   28 ar
    52   27   52 1
    53   28   29 ar
    54   28   53 1
    55   29   30 ar
    56   29   54 1
    57   30   31 ar
    58   30   55 1
    59   31   56 1
@<TRIPOS>MOLECULE
CHEMBL383678__1
   56    59     0     0     0
SMALL
USER_CHARGES

@<TRIPOS>ATOM
      1 C1          1.1343   -6.9247   -3.1992 C.3       1 <0>        -0.1722
      2 C2          0.4160   -6.0117   -2.2392 C.2       1 <0>         0.5004
      3 O1          0.5480   -6.1643   -1.0433 O.2       1 <0>        -0.5004
      4 N1         -0.3729   -5.0254   -2.7097 N.am      1 <0>        -0.6097
      5 C3         -0.4656   -4.7650   -4.1527 C.3       1 <0>         0.1075
      6 C4         -1.9411   -4.7863   -4.5639 C.3       1 <0>        -0.1395
      7 C5         -2.7229   -3.7981   -3.6953 C.3       1 <0>        -0.1178
      8 C6         -2.6245   -4.2181   -2.2270 C.3       1 <0>        -0.1245
      9 C7         -1.1614   -4.1943   -1.7898 C.3       1 <0>         0.1338
     10 C8         -1.0456   -4.7407   -0.3901 C.2       1 <0>         0.5120
     11 O2         -1.2400   -5.9194   -0.1812 O.2       1 <0>        -0.4281
     12 N2         -0.7259   -3.9194    0.6296 N.am      1 <0>        -0.6633
     13 C9         -0.5184   -4.4408    1.9060 C.ar      1 <0>         0.3764
     14 C10        -0.0818   -3.6060    2.9262 C.ar      1 <0>        -0.1951
     15 C11         0.1211   -4.1425    4.1975 C.ar      1 <0>         0.0170
     16 C12        -0.1261   -5.5063    4.3882 C.ar      1 <0>        -0.1924
     17 C13        -0.5581   -6.2665    3.3222 C.ar      1 <0>         0.1378
     18 N3         -0.7450   -5.7250    2.1334 N.ar      1 <0>        -0.4634
     19 C14         0.5876   -3.2890    5.3187 C.ar      1 <0>         0.0356
     20 C15         0.8297   -1.9238    5.1291 C.ar      1 <0>        -0.2085
     21 C16         1.2617   -1.1632    6.1945 C.ar      1 <0>         0.1485
     22 N4          1.4486   -1.7042    7.3838 N.ar      1 <0>        -0.5235
     23 C17         1.2322   -2.9911    7.6092 C.ar      1 <0>         0.3940
     24 C18         0.7904   -3.8254    6.5894 C.ar      1 <0>        -0.2095
     25 N5          1.4448   -3.5123    8.8813 N.pl3     1 <0>        -0.6637
     26 C19         1.7662   -2.6597    9.9410 C.ar      1 <0>         0.1644
     27 C20         1.2304   -1.3790    9.9912 C.ar      1 <0>        -0.1177
     28 C21         1.5497   -0.5392   11.0401 C.ar      1 <0>        -0.1004
     29 C22         2.4018   -0.9719   12.0396 C.ar      1 <0>        -0.1424
     30 C23         2.9369   -2.2462   11.9928 C.ar      1 <0>        -0.0990
     31 C24         2.6176   -3.0930   10.9495 C.ar      1 <0>        -0.1559
     32 H1          0.5034   -7.7848   -3.4236 H         1 <0>         0.0936
     33 H2          1.3528   -6.3843   -4.1202 H         1 <0>         0.0815
     34 H3          2.0662   -7.2656   -2.7481 H         1 <0>         0.0917
     35 H4         -0.0382   -3.7873   -4.3757 H         1 <0>         0.0725
     36 H5          0.0771   -5.5365   -4.6989 H         1 <0>         0.0946
     37 H6         -2.0310   -4.4998   -5.6117 H         1 <0>         0.0803
     38 H7         -2.3431   -5.7899   -4.4248 H         1 <0>         0.0708
     39 H8         -2.3046   -2.7988   -3.8159 H         1 <0>         0.0681
     40 H9         -3.7688   -3.7932   -4.0023 H         1 <0>         0.0737
     41 H10        -3.2008   -3.5273   -1.6115 H         1 <0>         0.0801
     42 H11        -3.0200   -5.2271   -2.1099 H         1 <0>         0.0792
     43 H12        -0.7920   -3.1691   -1.8158 H         1 <0>         0.0877
     44 H13        -0.6402   -2.9655    0.4755 H         1 <0>         0.4126
     45 H14         0.0981   -2.5579    2.7382 H         1 <0>         0.1384
     46 H15         0.0200   -5.9580    5.3583 H         1 <0>         0.1370
     47 H16        -0.7506   -7.3199    3.4632 H         1 <0>         0.1610
     48 H17         0.6802   -1.4716    4.1597 H         1 <0>         0.1367
     49 H18         1.4505   -0.1092    6.0538 H         1 <0>         0.1620
     50 H19         0.6104   -4.8736    6.7774 H         1 <0>         0.1378
     51 H20         1.3700   -4.4674    9.0329 H         1 <0>         0.4182
     52 H21         0.5652   -1.0403    9.2107 H         1 <0>         0.1327
     53 H22         1.1338    0.4567   11.0795 H         1 <0>         0.1229
     54 H23         2.6501   -0.3131   12.8585 H         1 <0>         0.1209
     55 H24         3.6020   -2.5810   12.7750 H         1 <0>         0.1237
     56 H25         3.0326   -4.0895   10.9157 H         1 <0>         0.1216
@<TRIPOS>BOND
     1    1    2 1
     2    1   32 1
     3    1   33 1
     4    1   34 1
     5    2    3 2
     6    2    4 am
     7    4    9 1
     8    4    5 1
     9    5    6 1
    10    5   35 1
    11    5   36 1
    12    6    7 1
    13    6   37 1
    14    6   38 1
    15    7    8 1
    16    7   39 1
    17    7   40 1
    18    8    9 1
    19    8   41 1
    20    8   42 1
    21    9   10 1
    22    9   43 1
    23   10   11 2
    24   10   12 am
    25   12   13 1
    26   12   44 1
    27   13   18 ar
    28   13   14 ar
    29   14   15 ar
    30   14   45 1
    31   15   16 ar
    32   15   19 1
    33   16   17 ar
    34   16   46 1
    35   17   18 ar
    36   17   47 1
    37   19   24 ar
    38   19   20 ar
    39   20   21 ar
    40   20   48 1
    41   21   22 ar
    42   21   49 1
    43   22   23 ar
    44   23   24 ar
    45   23   25 1
    46   24   50 1
    47   25   26 1
    48   25   51 1
    49   26   31 ar
    50   26   27 ar
    51   27   28 ar
    52   27   52 1
    53   28   29 ar
    54   28   53 1
    55   29   30 ar
    56   29   54 1
    57   30   31 ar
    58   30   55 1
    59   31   56 1
@<TRIPOS>MOLECULE
CHEMBL380625
   45    48     0     0     0
SMALL
USER_CHARGES

@<TRIPOS>ATOM
      1 C1          7.2137    1.4674    0.0870 C.ar      1 <0>        -0.1400
      2 C2          6.1408    1.9986   -0.6051 C.ar      1 <0>        -0.1009
      3 C3          4.9516    1.3005   -0.6803 C.ar      1 <0>        -0.1532
      4 C4          4.8341    0.0630   -0.0602 C.ar      1 <0>         0.1595
      5 C5          5.9140   -0.4680    0.6338 C.ar      1 <0>        -0.1154
      6 C6          7.1001    0.2357    0.7056 C.ar      1 <0>        -0.1024
      7 N1          3.6320   -0.6460   -0.1339 N.pl3     1 <0>        -0.6634
      8 C7          3.6477   -2.0337   -0.2305 C.ar      1 <0>         0.3958
      9 C8          2.4486   -2.7301   -0.3215 C.ar      1 <0>        -0.2095
     10 C9          2.4813   -4.1205   -0.4181 C.ar      1 <0>         0.0326
     11 C10         3.7282   -4.7558   -0.4191 C.ar      1 <0>        -0.2088
     12 C11         4.8720   -3.9921   -0.3253 C.ar      1 <0>         0.1501
     13 N2          4.8054   -2.6767   -0.2402 N.ar      1 <0>        -0.5235
     14 C12         1.2261   -4.9066   -0.5169 C.ar      1 <0>         0.0207
     15 C13        -0.0203   -4.2712   -0.5214 C.ar      1 <0>        -0.1862
     16 C14        -1.1641   -5.0355   -0.6150 C.ar      1 <0>         0.1384
     17 N3         -1.0970   -6.3507   -0.7000 N.ar      1 <0>        -0.4732
     18 C15         0.0601   -6.9939   -0.6994 C.ar      1 <0>         0.3654
     19 C16         1.2587   -6.2975   -0.6136 C.ar      1 <0>        -0.1885
     20 N4          0.0758   -8.3842   -0.7913 N.am      1 <0>        -0.6583
     21 C17        -1.0740   -9.0597   -0.9863 C.2       1 <0>         0.5572
     22 O1         -2.1356   -8.4678   -0.9774 O.2       1 <0>        -0.4595
     23 C18        -1.0441  -10.5202   -1.2111 C.ar      1 <0>        -0.1910
     24 C19        -2.2312  -11.2329   -1.4208 C.ar      1 <0>        -0.0129
     25 C20        -2.1485  -12.5985   -1.6264 C.ar      1 <0>        -0.1758
     26 C21        -0.9077  -13.2106   -1.6184 C.ar      1 <0>         0.1263
     27 N5          0.1944  -12.5136   -1.4183 N.ar      1 <0>        -0.4852
     28 C22         0.1681  -11.2114   -1.2238 C.ar      1 <0>         0.1347
     29 H1          8.1438    2.0135    0.1408 H         1 <0>         0.1211
     30 H2          6.2328    2.9608   -1.0870 H         1 <0>         0.1238
     31 H3          4.1138    1.7163   -1.2204 H         1 <0>         0.1216
     32 H4          5.8258   -1.4296    1.1174 H         1 <0>         0.1363
     33 H5          7.9399   -0.1763    1.2453 H         1 <0>         0.1232
     34 H6          2.7867   -0.1705   -0.1178 H         1 <0>         0.4182
     35 H7          1.5062   -2.2026   -0.3171 H         1 <0>         0.1380
     36 H8          3.7936   -5.8314   -0.4921 H         1 <0>         0.1374
     37 H9          5.8370   -4.4771   -0.3256 H         1 <0>         0.1628
     38 H10        -0.0858   -3.1955   -0.4519 H         1 <0>         0.1401
     39 H11        -2.1292   -4.5507   -0.6186 H         1 <0>         0.1651
     40 H12         2.2011   -6.8250   -0.6180 H         1 <0>         0.1423
     41 H13         0.9143   -8.8658   -0.7148 H         1 <0>         0.4174
     42 H14        -3.1867  -10.7294   -1.4216 H         1 <0>         0.1503
     43 H15        -3.0431  -13.1807   -1.7910 H         1 <0>         0.1471
     44 H16        -0.8404  -14.2766   -1.7783 H         1 <0>         0.1652
     45 H17         1.0922  -10.6745   -1.0683 H         1 <0>         0.1572
@<TRIPOS>BOND
     1    1    6 ar
     2    1    2 ar
     3    1   29 1
     4    2    3 ar
     5    2   30 1
     6    3    4 ar
     7    3   31 1
     8    4    5 ar
     9    4    7 1
    10    5    6 ar
    11    5   32 1
    12    6   33 1
    13    7    8 1
    14    7   34 1
    15    8   13 ar
    16    8    9 ar
    17    9   10 ar
    18    9   35 1
    19   10   11 ar
    20   10   14 1
    21   11   12 ar
    22   11   36 1
    23   12   13 ar
    24   12   37 1
    25   14   19 ar
    26   14   15 ar
    27   15   16 ar
    28   15   38 1
    29   16   17 ar
    30   16   39 1
    31   17   18 ar
    32   18   19 ar
    33   18   20 1
    34   19   40 1
    35   20   21 am
    36   20   41 1
    37   21   22 2
    38   21   23 1
    39   23   28 ar
    40   23   24 ar
    41   24   25 ar
    42   24   42 1
    43   25   26 ar
    44   25   43 1
    45   26   27 ar
    46   26   44 1
    47   27   28 ar
    48   28   45 1
@<TRIPOS>MOLECULE
CHEMBL363600
   68    73     0     0     0
SMALL
USER_CHARGES

@<TRIPOS>ATOM
      1 C1          5.2558   -4.3733   -2.7417 C.ar      1 <0>        -0.1223
      2 C2          4.0634   -3.7701   -2.3876 C.ar      1 <0>        -0.1161
      3 C3          4.0729   -2.5645   -1.7114 C.ar      1 <0>        -0.1152
      4 C4          5.2746   -1.9623   -1.3887 C.ar      1 <0>        -0.0913
      5 C5          6.4670   -2.5660   -1.7420 C.ar      1 <0>        -0.1197
      6 C6          6.4575   -3.7709   -2.4195 C.ar      1 <0>        -0.1170
      7 C7          5.2849   -0.6476   -0.6523 C.3       1 <0>        -0.0696
      8 C8          5.1578   -0.9038    0.8507 C.3       1 <0>         0.1447
      9 H1          4.2512   -1.4755    1.0489 H         1 <0>         0.0812
     10 C9          6.3796   -1.6888    1.3441 C.3       1 <0>         0.1098
     11 N1          6.3696   -1.6981    2.8137 N.pl3     1 <0>        -0.5976
     12 C10         6.3147   -0.4159    3.5297 C.3       1 <0>         0.1073
     13 C11         5.0930    0.3691    3.0363 C.3       1 <0>         0.0906
     14 N2          5.0988    0.3784    1.5664 N.am      1 <0>        -0.6128
     15 C12         5.0556    1.5417    0.8872 C.2       1 <0>         0.5143
     16 O1          5.1535    1.5421   -0.3216 O.2       1 <0>        -0.5038
     17 C13         4.8858    2.8420    1.6299 C.3       1 <0>         0.0577
     18 O2          4.8700    3.9246    0.6973 O.3       1 <0>        -0.5474
     19 C14         6.4118   -2.8983    3.5139 C.ar      1 <0>         0.3506
     20 C15         6.6852   -4.0879    2.8411 C.ar      1 <0>        -0.1624
     21 C16         6.7173   -5.2666    3.5866 C.ar      1 <0>         0.0067
     22 C17         6.4706   -5.1734    4.9724 C.ar      1 <0>         0.0726
     23 N3          6.2200   -3.9893    5.5151 N.ar      1 <0>        -0.1769
     24 N4          6.1975   -2.9099    4.8222 N.ar      1 <0>        -0.2990
     25 C18         6.4907   -6.3886    5.8149 C.ar      1 <0>        -0.0232
     26 C19         5.7628   -7.5079    5.4467 C.ar      1 <0>        -0.0861
     27 C20         5.7767   -8.6532    6.2339 C.ar      1 <0>        -0.1158
     28 C21         6.5035   -8.7087    7.3849 C.ar      1 <0>        -0.0918
     29 C22         7.2569   -7.5960    7.7967 C.ar      1 <0>        -0.0510
     30 C23         7.2591   -6.4226    7.0038 C.ar      1 <0>        -0.0258
     31 C24         8.0159   -5.3154    7.4126 C.ar      1 <0>        -0.0970
     32 C25         8.7435   -5.3831    8.5622 C.ar      1 <0>        -0.1140
     33 C26         8.7479   -6.5388    9.3402 C.ar      1 <0>        -0.1131
     34 C27         8.0147   -7.6279    8.9804 C.ar      1 <0>        -0.1070
     35 C28         7.0006   -6.5724    2.9444 C.ar      1 <0>        -0.0084
     36 C29         8.0392   -7.3882    3.4034 C.ar      1 <0>        -0.1399
     37 C30         8.2681   -8.5962    2.7770 C.ar      1 <0>         0.1063
     38 N5          7.5232   -8.9832    1.7593 N.ar      1 <0>        -0.4758
     39 C31         6.5340   -8.2439    1.2955 C.ar      1 <0>         0.1048
     40 C32         6.2327   -7.0245    1.8670 C.ar      1 <0>        -0.1544
     41 H2          5.2485   -5.3174   -3.2661 H         1 <0>         0.1212
     42 H3          3.1245   -4.2405   -2.6397 H         1 <0>         0.1215
     43 H4          3.1413   -2.0929   -1.4354 H         1 <0>         0.1194
     44 H5          7.4059   -2.0954   -1.4903 H         1 <0>         0.1193
     45 H6          7.3891   -4.2423   -2.6959 H         1 <0>         0.1212
     46 H7          6.2201   -0.1254   -0.8541 H         1 <0>         0.0879
     47 H8          4.4475   -0.0362   -0.9887 H         1 <0>         0.1058
     48 H9          6.3319   -2.7120    0.9714 H         1 <0>         0.0973
     49 H10         7.2911   -1.2090    0.9875 H         1 <0>         0.0791
     50 H11         6.2242   -0.5985    4.6005 H         1 <0>         0.1143
     51 H12         7.2216    0.1545    3.3287 H         1 <0>         0.0738
     52 H13         4.1815   -0.1107    3.3930 H         1 <0>         0.0813
     53 H14         5.1407    1.3923    3.4090 H         1 <0>         0.0993
     54 H15         3.9464    2.8247    2.1825 H         1 <0>         0.0782
     55 H16         5.7143    2.9739    2.3257 H         1 <0>         0.0774
     56 H17         4.7634    4.7944    1.1063 H         1 <0>         0.3891
     57 H18         6.8660   -4.0970    1.7764 H         1 <0>         0.1512
     58 H19         5.1781   -7.4903    4.5388 H         1 <0>         0.1199
     59 H20         5.2009   -9.5142    5.9279 H         1 <0>         0.1267
     60 H21         6.5003   -9.6087    7.9819 H         1 <0>         0.1299
     61 H22         8.0222   -4.4133    6.8188 H         1 <0>         0.1263
     62 H23         9.3256   -4.5287    8.8749 H         1 <0>         0.1230
     63 H24         9.3334   -6.5675   10.2473 H         1 <0>         0.1242
     64 H25         8.0265   -8.5169    9.5936 H         1 <0>         0.1287
     65 H26         8.6535   -7.0773    4.2355 H         1 <0>         0.1353
     66 H27         9.0680   -9.2333    3.1242 H         1 <0>         0.1598
     67 H28         5.9494   -8.5997    0.4600 H         1 <0>         0.1602
     68 H29         5.4185   -6.4265    1.4851 H         1 <0>         0.1365
@<TRIPOS>BOND
     1    1    6 ar
     2    1    2 ar
     3    1   41 1
     4    2    3 ar
     5    2   42 1
     6    3    4 ar
     7    3   43 1
     8    4    5 ar
     9    4    7 1
    10    5    6 ar
    11    5   44 1
    12    6   45 1
    13    7    8 1
    14    7   46 1
    15    7   47 1
    16    8    9 1
    17    8   14 1
    18    8   10 1
    19   10   11 1
    20   10   48 1
    21   10   49 1
    22   11   12 1
    23   11   19 1
    24   12   13 1
    25   12   50 1
    26   12   51 1
    27   13   14 1
    28   13   52 1
    29   13   53 1
    30   14   15 am
    31   15   16 2
    32   15   17 1
    33   17   18 1
    34   17   54 1
    35   17   55 1
    36   18   56 1
    37   19   24 ar
    38   19   20 ar
    39   20   21 ar
    40   20   57 1
    41   21   22 ar
    42   21   35 1
    43   22   23 ar
    44   22   25 1
    45   23   24 ar
    46   25   30 ar
    47   25   26 ar
    48   26   27 ar
    49   26   58 1
    50   27   28 ar
    51   27   59 1
    52   28   29 ar
    53   28   60 1
    54   29   34 ar
    55   29   30 ar
    56   30   31 ar
    57   31   32 ar
    58   31   61 1
    59   32   33 ar
    60   32   62 1
    61   33   34 ar
    62   33   63 1
    63   34   64 1
    64   35   40 ar
    65   35   36 ar
    66   36   37 ar
    67   36   65 1
    68   37   38 ar
    69   37   66 1
    70   38   39 ar
    71   39   40 ar
    72   39   67 1
    73   40   68 1
@<TRIPOS>MOLECULE
CHEMBL377408
   43    44     0     0     0
SMALL
USER_CHARGES

@<TRIPOS>ATOM
      1 C1         -0.0187    1.5258    0.0104 C.3       1 <0>        -0.1579
      2 C2          0.0021   -0.0041    0.0020 C.3       1 <0>         0.0624
      3 O1         -1.3386   -0.4987    0.0122 O.3       1 <0>        -0.2942
      4 C3         -1.4978   -1.8442    0.0065 C.ar      1 <0>         0.4169
      5 C4         -2.7916   -2.3917    0.0100 C.ar      1 <0>        -0.1678
      6 C5         -2.9371   -3.7908    0.0035 C.ar      1 <0>         0.3307
      7 C6         -1.7827   -4.5744   -0.0062 C.ar      1 <0>        -0.2164
      8 C7         -0.5411   -3.9531   -0.0092 C.ar      1 <0>         0.1827
      9 N1         -0.4370   -2.6274   -0.0079 N.ar      1 <0>        -0.5624
     10 C8          0.6885   -4.7811   -0.0190 C.2       1 <0>         0.5763
     11 O2          0.6047   -5.9933   -0.0244 O.2       1 <0>        -0.5051
     12 N2          1.8994   -4.1893   -0.0219 N.am      1 <0>        -0.7127
     13 C9          3.1145   -5.0075   -0.0316 C.3       1 <0>         0.1044
     14 C10         4.3248   -4.1096   -0.0331 C.ar      1 <0>        -0.0123
     15 C11         4.9948   -3.8544   -1.2152 C.ar      1 <0>        -0.1174
     16 C12         6.1048   -3.0309   -1.2165 C.ar      1 <0>        -0.0593
     17 C13         6.5448   -2.4618   -0.0358 C.ar      1 <0>        -0.1290
     18 C14         5.8744   -2.7161    1.1458 C.ar      1 <0>        -0.0166
     19 C15         4.7615   -3.5365    1.1464 C.ar      1 <0>        -0.6619
     20 S1          3.9032   -3.8558    2.6517 S.o2      1 <0>         2.6959
     21 O3          3.7291   -5.2640    2.7291 O.2       1 <0>        -0.9530
     22 O4          4.5691   -3.1138    3.6642 O.2       1 <0>        -0.9606
     23 N3          2.3903   -3.1994    2.5014 N.pl3     1 <0>        -1.2450
     24 N4         -4.1940   -4.3755    0.0072 N.pl3     1 <0>        -0.8360
     25 C16        -3.9426   -1.5399    0.0206 C.1       1 <0>         0.2633
     26 N5         -4.8558   -0.8642    0.0289 N.1       1 <0>        -0.4083
     27 H1          1.0039    1.9031    0.0027 H         1 <0>         0.0836
     28 H2         -0.5459    1.8868   -0.8726 H         1 <0>         0.0668
     29 H3         -0.5289    1.8773    0.9072 H         1 <0>         0.0673
     30 H4          0.5123   -0.3556   -0.8948 H         1 <0>         0.0733
     31 H5          0.5293   -0.3651    0.8851 H         1 <0>         0.0728
     32 H6         -1.8542   -5.6520   -0.0111 H         1 <0>         0.1623
     33 H7          1.9663   -3.2216   -0.0176 H         1 <0>         0.4074
     34 H8          3.1331   -5.6410    0.8552 H         1 <0>         0.1256
     35 H9          3.1247   -5.6324   -0.9247 H         1 <0>         0.1003
     36 H10         4.6511   -4.2990   -2.1375 H         1 <0>         0.1386
     37 H11         6.6286   -2.8321   -2.1398 H         1 <0>         0.1370
     38 H12         7.4125   -1.8189   -0.0367 H         1 <0>         0.1387
     39 H13         6.2183   -2.2719    2.0682 H         1 <0>         0.1495
     40 H14         2.1381   -2.7448    1.6826 H         1 <0>         0.4109
     41 H15         1.7564   -3.2696    3.2323 H         1 <0>         0.4232
     42 H16        -4.9880   -3.8184    0.0143 H         1 <0>         0.4094
     43 H17        -4.2795   -5.3417    0.0026 H         1 <0>         0.4166
@<TRIPOS>BOND
     1    1    2 1
     2    1   27 1
     3    1   28 1
     4    1   29 1
     5    2    3 1
     6    2   30 1
     7    2   31 1
     8    3    4 1
     9    4    9 ar
    10    4    5 ar
    11    5    6 ar
    12    5   25 1
    13    6    7 ar
    14    6   24 1
    15    7    8 ar
    16    7   32 1
    17    8    9 ar
    18    8   10 1
    19   10   11 2
    20   10   12 am
    21   12   13 1
    22   12   33 1
    23   13   14 1
    24   13   34 1
    25   13   35 1
    26   14   19 ar
    27   14   15 ar
    28   15   16 ar
    29   15   36 1
    30   16   17 ar
    31   16   37 1
    32   17   18 ar
    33   17   38 1
    34   18   19 ar
    35   18   39 1
    36   19   20 1
    37   20   21 2
    38   20   22 2
    39   20   23 1
    40   23   40 1
    41   23   41 1
    42   24   42 1
    43   24   43 1
    44   25   26 3
